* NGSPICE file created from top_conditionning.ext - technology: ihp-sg13g2

.subckt top_conditionning VSS IOVDD VOUT S0 S1 S2 S3 SEL_CAL SEL_SENSOR VBG VBIASH
+ EN VBIAS VDD COMPARATOR_RES SENSOR
X0 non_inverting_amplifier_hv_0.ota_hv_slow_gmid_0.vota.t1 VAMP.t62 non_inverting_amplifier_hv_0.ota_hv_slow_gmid_0.ota_hv_slow_gmid_tail_0.tail.t0 IOVDD.t3 sg13_hv_pmos ad=0.6069p pd=4.25u as=0.33915p ps=2.165u w=1.785u l=3u
X1 VSS.t389 VSS.t390 VSS.t388 rhigh l=2.5u w=0.5u
X2 dw_n7292_5488.t8 a_n1031_4249.t0 VSS.t465 rhigh l=2.5u w=0.5u
X3 VDD.t132 VDD.t159 VDD.t132 VDD.t66 sg13_lv_pmos ad=0.475p pd=2.88u as=0 ps=0 w=2.5u l=2u
X4 current_source_1mA_0.ota_med_hv_gmid_0.ota_med_hv_gmid_tail_0.tail.t0 current_source_1mA_0.current_source_1mA_2_stage_0.vcp.t6 current_source_1mA_0.ota_med_hv_gmid_0.ota_med_hv_gmid_mirror_0.Iref.t3 IOVDD.t4 sg13_hv_pmos ad=0.5586p pd=3.32u as=0.9996p ps=6.56u w=2.94u l=1u
X5 VSS.t882 VSS.t517 VSS.t881 VSS.t880 sg13_hv_nmos ad=1.4535p pd=9.23u as=0 ps=0 w=4.275u l=4u
X6 two_stage_instrumentation_amplifier_0.ota_slow_gmid_1.vout1.t3 two_stage_instrumentation_amplifier_0.ota_slow_gmid_1.en_n.t2 VSS.t175 VSS.t184 sg13_lv_nmos ad=0.228p pd=1.58u as=0.228p ps=1.58u w=1.2u l=0.13u
X7 non_inverting_amplifier_hv_0.ota_hv_slow_gmid_0.vota.t2 non_inverting_amplifier_hv_0.ota_hv_slow_gmid_0.vref.t2 VSS.t1016 VSS.t900 sg13_hv_nmos ad=1.4535p pd=9.23u as=0.81225p ps=4.655u w=4.275u l=10u
X8 IOVDD.t193 IOVDD.t64 IOVDD.t167 IOVDD.t16 sg13_hv_pmos ad=0.34p pd=2.68u as=0 ps=0 w=1u l=0.5u
X9 VDD.t87 VBIAS.t32 two_stage_instrumentation_amplifier_0.ota_slow_gmid_1.vout1.t13 VDD.t0 sg13_lv_pmos ad=0.19p pd=1.38u as=0.34p ps=2.68u w=1u l=0.5u
X10 ref_selector_0.I1MA.t13 SEL_CAL.t0 ref_selector_0.ref_selector_r_96_0.vcal.t8 VSS.t211 sg13_lv_nmos ad=0.95p pd=5.38u as=0.95p ps=5.38u w=5u l=0.13u
X11 IOVDD.t85 IOVDD.t73 IOVDD.t85 IOVDD.t25 sg13_hv_pmos ad=0.19p pd=1.38u as=0 ps=0 w=1u l=0.5u
X12 VDD.t59 two_stage_instrumentation_amplifier_0.ota_slow_gmid_0.en.t2 VBIAS.t17 VDD.t68 sg13_lv_pmos ad=0.19p pd=1.38u as=0.19p ps=1.38u w=1u l=0.13u
X13 non_inverting_amplifier_hv_0.ota_hv_slow_gmid_0.vamp.t7 non_inverting_amplifier_hv_0.ota_hv_slow_gmid_0.en_n.t2 VSS.t216 VSS.t212 sg13_hv_nmos ad=0.4218p pd=2.6u as=0.4218p ps=2.6u w=2.22u l=0.45u
X14 VSS.t879 VSS.t507 VSS.t878 VSS.t508 sg13_lv_nmos ad=0.17p pd=1.68u as=0 ps=0 w=0.5u l=2u
X15 VSS.t876 VSS.t492 VSS.t875 VSS.t538 sg13_lv_nmos ad=0.1075p pd=1.34u as=0 ps=0 w=0.25u l=0.5u
X16 SENSOR.t1 SEL_SENSOR.t0 two_stage_instrumentation_amplifier_0.VP.t0 VSS.t169 sg13_lv_nmos ad=0.95p pd=5.38u as=1.7p ps=10.68u w=5u l=0.13u
X17 ota_lv_gmid_comparator_0.ota_slow_gmid_mirror_0.vout1.t5 VBIAS.t33 VDD.t94 VDD.t54 sg13_lv_pmos ad=0.34p pd=2.68u as=0.19p ps=1.38u w=1u l=0.5u
X18 a_n17403_4529.t0 a_n17104_4821.t0 VSS.t391 rhigh l=3u w=0.5u
X19 ref_selector_0.I1MA.t11 current_source_1mA_0.current_source_1mA_2_stage_0.current_source_pass_element_0.iref.t4 IOVDD.t39 IOVDD.t31 sg13_hv_pmos ad=0.285p pd=1.88u as=0.285p ps=1.88u w=1.5u l=0.5u
X20 two_stage_instrumentation_amplifier_0.vamp1.t1 two_stage_instrumentation_amplifier_0.ota_slow_gmid_1.vout1.t19 VDD.t84 VSS.t411 sg13_lv_nmos ad=0.19p pd=1.38u as=0.19p ps=1.38u w=1u l=0.13u
X21 two_stage_instrumentation_amplifier_0.ota_slow_gmid_1.vout1.t2 two_stage_instrumentation_amplifier_0.ota_slow_gmid_1.en_n.t2 VSS.t181 VSS.t183 sg13_lv_nmos ad=0.228p pd=1.58u as=0.228p ps=1.58u w=1.2u l=0.13u
X22 a_n9604_1483.t1 a_n9874_1205.t1 VSS.t395 rhigh l=0.96u w=0.5u
X23 VDD.t72 two_stage_instrumentation_amplifier_0.ota_slow_gmid_0.en.t3 VBIAS.t23 VDD.t55 sg13_lv_pmos ad=0.19p pd=1.38u as=0.19p ps=1.38u w=1u l=0.13u
X24 VSS.t145 VSS.t146 VSS.t144 rppd l=1.43u w=0.5u
X25 a_7225_719.t1 a_7631_719.t1 VSS.t7 rhigh l=1.6u w=0.5u
X26 VSS.t1012 VSS.t1013 VSS.t28 rhigh l=0.96u w=0.5u
X27 VSS.t570 VSS.t568 VSS.t570 VSS.t872 sg13_lv_nmos ad=0.19p pd=1.38u as=0 ps=0 w=1u l=0.13u
X28 VOUT.t2 non_inverting_amplifier_hv_0.ota_hv_slow_gmid_0.vamp.t23 IOVDD.t6 VSS.t205 sg13_hv_nmos ad=0.19p pd=1.38u as=0.19p ps=1.38u w=1u l=1u
X29 VDD.t39 ota_lv_gmid_comparator_0.ota_slow_gmid_ctrl_buff_0.x.t6 a_2285_1463.t5 VSS.t121 sg13_lv_nmos ad=55.85f pd=0.74u as=55.85f ps=0.74u w=0.155u l=0.5u
X30 VSS.t1010 VSS.t1011 VSS.t424 rhigh l=0.96u w=0.5u
X31 VBIAS.t18 two_stage_instrumentation_amplifier_0.ota_slow_gmid_0.en.t3 VDD.t77 VDD.t55 sg13_lv_pmos ad=0.19p pd=1.38u as=0.19p ps=1.38u w=1u l=0.13u
X32 a_17412_7390.t0 a_17412_6864.t0 VSS.t67 rhigh l=0.96u w=0.5u
X33 VSS.t383 VSS.t384 VSS.t141 rppd l=3.69u w=0.5u
X34 VSS.t1039 VSS.t1040 VSS.t167 rhigh l=1.6u w=0.5u
X35 non_inverting_amplifier_hv_0.ota_hv_slow_gmid_0.vamp.t11 non_inverting_amplifier_hv_0.ota_hv_slow_gmid_0.en_n.t3 VSS.t223 VSS.t226 sg13_hv_nmos ad=0.114p pd=0.98u as=0.114p ps=0.98u w=0.6u l=0.45u
X36 two_stage_instrumentation_amplifier_0.vamp1.t61 two_stage_instrumentation_amplifier_0.ota_slow_gmid_1.ota_slow_gmid_buffer_0.ibiasn.t0 VSS.t1002 VSS.t941 sg13_lv_nmos ad=0.1075p pd=1.34u as=0.1075p ps=1.34u w=0.25u l=0.5u
X37 VSS.t1054 VSS.t1055 VSS.t167 rhigh l=1.6u w=0.5u
X38 a_2485_3315.t2 ota_lv_gmid_comparator_0.ota_slow_gmid_mirror_0.vout1.t14 VDD.t53 VDD.t52 sg13_lv_pmos ad=95f pd=0.88u as=0.2p ps=1.8u w=0.5u l=0.5u
X39 VSS.t161 ota_lv_gmid_comparator_0.ota_slow_gmid_ctrl_buff_0.x.t7 a_2485_3315.t1 VDD.t49 sg13_lv_pmos ad=95f pd=0.88u as=95f ps=0.88u w=0.5u l=1u
X40 current_source_1mA_0.ota_med_hv_gmid_0.ota_med_hv_gmid_mirror_0.Iref.t2 current_source_1mA_0.ota_med_hv_gmid_0.ota_med_hv_gmid_mirror_0.Iref.t0 VSS.t439 VSS.t436 sg13_hv_nmos ad=0.646p pd=4.48u as=0.646p ps=4.48u w=1.9u l=2u
X41 VSS.t380 two_stage_instrumentation_amplifier_0.ota_slow_gmid_0.ota_slow_gmid_buffer_0.ibiasn.t0 VAMP.t51 VSS.t323 sg13_lv_nmos ad=0.1075p pd=1.34u as=0.1075p ps=1.34u w=0.25u l=0.5u
X42 VDD.t236 ota_lv_gmid_comparator_0.ota_slow_gmid_ctrl_buff_1.y.t2 ota_lv_gmid_comparator_0.ota_slow_gmid_mirror_0.vout1.t8 VDD.t27 sg13_lv_pmos ad=0.27075p pd=1.805u as=0.27075p ps=1.805u w=1.425u l=0.13u
X43 two_stage_instrumentation_amplifier_0.ota_slow_gmid_1.vout1.t11 two_stage_instrumentation_amplifier_0.ota_slow_gmid_1.en_n.t2 VSS.t179 VSS.t182 sg13_lv_nmos ad=0.408p pd=3.08u as=0.228p ps=1.58u w=1.2u l=0.13u
X44 two_stage_instrumentation_amplifier_0.vamp1.t60 two_stage_instrumentation_amplifier_0.ota_slow_gmid_1.ota_slow_gmid_buffer_0.ibiasn.t0 VSS.t1001 VSS.t945 sg13_lv_nmos ad=0.1075p pd=1.34u as=0.1075p ps=1.34u w=0.25u l=0.5u
X45 VDD.t38 ota_lv_gmid_comparator_0.ota_slow_gmid_ctrl_buff_0.x.t6 a_2285_1463.t4 VSS.t120 sg13_lv_nmos ad=0.10085p pd=1.34u as=55.85f ps=0.74u w=0.155u l=0.5u
X46 VSS.t1000 two_stage_instrumentation_amplifier_0.ota_slow_gmid_1.ota_slow_gmid_buffer_0.ibiasn.t0 two_stage_instrumentation_amplifier_0.vamp1.t59 VSS.t939 sg13_lv_nmos ad=0.1075p pd=1.34u as=0.1075p ps=1.34u w=0.25u l=0.5u
X47 VSS.t16 two_stage_instrumentation_amplifier_0.ota_slow_gmid_1.en_n.t3 two_stage_instrumentation_amplifier_0.ota_slow_gmid_1.vout1.t10 VSS.t23 sg13_lv_nmos ad=0.228p pd=1.58u as=0.228p ps=1.58u w=1.2u l=0.13u
X48 VSS.t871 VSS.t521 VSS.t870 VSS.t544 sg13_lv_nmos ad=0.1075p pd=1.34u as=0 ps=0 w=0.25u l=0.5u
X49 non_inverting_amplifier_hv_0.ota_hv_slow_gmid_0.vamp.t10 non_inverting_amplifier_hv_0.ota_hv_slow_gmid_0.en_n.t4 VSS.t233 VSS.t237 sg13_hv_nmos ad=0.4218p pd=2.6u as=0.4218p ps=2.6u w=2.22u l=0.45u
X50 a_2285_1463.t9 ota_lv_gmid_comparator_0.ota_slow_gmid_ctrl_buff_0.x.t6 VDD.t35 VSS.t119 sg13_lv_nmos ad=55.85f pd=0.74u as=0.10085p ps=1.34u w=0.155u l=0.5u
X51 VSS.t570 VSS.t568 VSS.t570 VSS.t867 sg13_lv_nmos ad=0.19p pd=1.38u as=0 ps=0 w=1u l=0.13u
X52 VDD.t201 VDD.t137 VDD.t201 VDD.t55 sg13_lv_pmos ad=0.475p pd=2.88u as=0 ps=0 w=2.5u l=2u
X53 VSS.t386 VSS.t387 VSS.t385 rppd l=3.69u w=0.5u
X54 IOVDD.t188 IOVDD.t56 IOVDD.t165 IOVDD.t18 sg13_hv_pmos ad=0.34p pd=2.68u as=0 ps=0 w=1u l=0.5u
X55 VSS.t122 VSS.t123 VSS.t28 rhigh l=0.96u w=0.5u
X56 IOVDD.t202 non_inverting_amplifier_hv_0.ota_hv_slow_gmid_0.en.t2 VBIASH.t17 IOVDD.t28 sg13_hv_pmos ad=0.1122p pd=1.34u as=62.69999f ps=0.71u w=0.33u l=0.4u
X57 VSS.t412 VSS.t413 VSS.t247 rhigh l=0.96u w=0.5u
X58 two_stage_instrumentation_amplifier_0.ota_slow_gmid_1.ota_slow_gmid_common_0/ota_slow_gmid_pairs_0.tail.t1 two_stage_instrumentation_amplifier_0.ota_slow_gmid_1.VN.t2 two_stage_instrumentation_amplifier_0.ota_slow_gmid_1.ota_slow_gmid_mirror_0.vref.t1 VDD.t0 sg13_lv_pmos ad=0.475p pd=2.88u as=0.85p ps=5.68u w=2.5u l=5u
X59 ref_selector_0.I1MA.t10 current_source_1mA_0.current_source_1mA_2_stage_0.current_source_pass_element_0.iref.t4 IOVDD.t54 IOVDD.t31 sg13_hv_pmos ad=0.285p pd=1.88u as=0.285p ps=1.88u w=1.5u l=0.5u
X60 a_14214_881.t0 a_14350_881.t0 VSS.t95 rppd l=3.69u w=0.5u
X61 VSS.t866 VSS.t488 VSS.t865 VSS.t554 sg13_lv_nmos ad=0.1075p pd=1.34u as=0 ps=0 w=0.25u l=0.5u
X62 two_stage_instrumentation_amplifier_0.vamp1.t58 two_stage_instrumentation_amplifier_0.ota_slow_gmid_1.ota_slow_gmid_buffer_0.ibiasn.t0 VSS.t999 VSS.t935 sg13_lv_nmos ad=0.1075p pd=1.34u as=0.1075p ps=1.34u w=0.25u l=0.5u
X63 VBIASH.t6 non_inverting_amplifier_hv_0.ota_hv_slow_gmid_0.en.t2 IOVDD.t199 IOVDD.t28 sg13_hv_pmos ad=62.69999f pd=0.71u as=62.69999f ps=0.71u w=0.33u l=0.4u
X64 VSS.t559 VSS.t557 VSS.t559 VSS.t862 sg13_lv_nmos ad=0.19p pd=1.38u as=0 ps=0 w=1u l=0.13u
X65 VSS.t861 VSS.t484 VSS.t860 VSS.t485 sg13_lv_nmos ad=0.17p pd=1.68u as=0 ps=0 w=0.5u l=2u
X66 IOVDD.t96 IOVDD.t67 IOVDD.t96 IOVDD.t28 sg13_hv_pmos ad=0.33915p pd=2.165u as=0 ps=0 w=1.785u l=3u
X67 VAMP.t53 two_stage_instrumentation_amplifier_0.ota_slow_gmid_0.ota_slow_gmid_buffer_0.ibiasn.t0 VSS.t379 VSS.t321 sg13_lv_nmos ad=0.1075p pd=1.34u as=0.1075p ps=1.34u w=0.25u l=0.5u
X68 IOVDD.t90 IOVDD.t89 IOVDD.t90 IOVDD.t18 sg13_hv_pmos ad=0.5586p pd=3.32u as=0 ps=0 w=2.94u l=1u
X69 VSS.t559 VSS.t557 VSS.t559 VSS.t857 sg13_lv_nmos ad=0.19p pd=1.38u as=0 ps=0 w=1u l=0.13u
X70 IOVDD.t74 IOVDD.t73 IOVDD.t74 IOVDD.t25 sg13_hv_pmos ad=0.19p pd=1.38u as=0 ps=0 w=1u l=0.5u
X71 vref.t6 S3.t0 ref_selector_0.ref_selector_r_refs_0.R3.t1 VSS.t923 sg13_lv_nmos ad=1.02p pd=6.68u as=1.02p ps=6.68u w=3u l=0.13u
X72 a_2485_3315.t4 ota_lv_gmid_comparator_0.ota_slow_gmid_mirror_0.vout1.t15 ota_lv_gmid_comparator_0.ota_slow_gmid_ctrl_buff_0.x.t2 VDD.t54 sg13_lv_pmos ad=0.2375p pd=1.63u as=0.2375p ps=1.63u w=1.25u l=0.13u
X73 VBIASH.t17 non_inverting_amplifier_hv_0.ota_hv_slow_gmid_0.en.t2 IOVDD.t198 IOVDD.t28 sg13_hv_pmos ad=62.69999f pd=0.71u as=62.69999f ps=0.71u w=0.33u l=0.4u
X74 VSS.t39 VSS.t40 VSS.t38 rppd l=1.43u w=0.5u
X75 COMPARATOR_RES.t1 ota_lv_gmid_comparator_0.ota_slow_gmid_ctrl_buff_0.ota_slow_gmid_ctrl_inv_0.x.t2 VDD.t28 VDD.t27 sg13_lv_pmos ad=0.68p pd=4.68u as=0.68p ps=4.68u w=2u l=0.13u
X76 a_17952_7916.t1 a_18222_7638.t1 VSS.t46 rhigh l=0.96u w=0.5u
X77 vref.t3 current_source_1mA_0.current_source_1mA_2_stage_0.current_source_pass_element_0.iref.t4 IOVDD.t47 IOVDD.t31 sg13_hv_pmos ad=0.51p pd=3.68u as=0.285p ps=1.88u w=1.5u l=0.5u
X78 non_inverting_amplifier_hv_0.ota_hv_slow_gmid_0.vamp.t8 non_inverting_amplifier_hv_0.ota_hv_slow_gmid_0.en_n.t2 VSS.t218 VSS.t212 sg13_hv_nmos ad=0.4218p pd=2.6u as=0.4218p ps=2.6u w=2.22u l=0.45u
X79 IOVDD.t199 non_inverting_amplifier_hv_0.ota_hv_slow_gmid_0.en.t2 VBIASH.t11 IOVDD.t28 sg13_hv_pmos ad=62.69999f pd=0.71u as=62.69999f ps=0.71u w=0.33u l=0.4u
X80 VDD.t141 VDD.t140 VDD.t141 VDD.t27 sg13_lv_pmos ad=0.475p pd=2.88u as=0 ps=0 w=2.5u l=2u
X81 two_stage_instrumentation_amplifier_0.vamp1.t57 two_stage_instrumentation_amplifier_0.ota_slow_gmid_1.ota_slow_gmid_buffer_0.ibiasn.t0 VSS.t998 VSS.t960 sg13_lv_nmos ad=0.1075p pd=1.34u as=0.1075p ps=1.34u w=0.25u l=0.5u
X82 VDD.t217 VDD.t152 VDD.t114 VDD.t9 sg13_lv_pmos ad=0.85p pd=5.68u as=0 ps=0 w=2.5u l=2u
X83 VSS.t856 VSS.t477 VSS.t855 VSS.t478 sg13_lv_nmos ad=0.17p pd=1.68u as=0 ps=0 w=0.5u l=2u
X84 VSS.t1016 non_inverting_amplifier_hv_0.ota_hv_slow_gmid_0.vref.t2 non_inverting_amplifier_hv_0.ota_hv_slow_gmid_0.vref.t4 VSS.t898 sg13_hv_nmos ad=0.81225p pd=4.655u as=1.4535p ps=9.23u w=4.275u l=10u
X85 a_2285_1463.t7 ota_lv_gmid_comparator_0.ota_slow_gmid_ctrl_buff_0.x.t6 VDD.t32 VSS.t118 sg13_lv_nmos ad=55.85f pd=0.74u as=55.85f ps=0.74u w=0.155u l=0.5u
X86 IOVDD.t179 IOVDD.t61 IOVDD.t46 IOVDD.t31 sg13_hv_pmos ad=0.51p pd=3.68u as=0 ps=0 w=1.5u l=0.5u
X87 VOUT.t1 a_17412_8690.t1 VSS.t67 rhigh l=0.96u w=0.5u
X88 VSS.t997 two_stage_instrumentation_amplifier_0.ota_slow_gmid_1.ota_slow_gmid_buffer_0.ibiasn.t0 two_stage_instrumentation_amplifier_0.vamp1.t56 VSS.t976 sg13_lv_nmos ad=0.1075p pd=1.34u as=0.1075p ps=1.34u w=0.25u l=0.5u
X89 VSS.t99 two_stage_instrumentation_amplifier_0.ota_slow_gmid_1.ota_slow_gmid_mirror_0.vref.t2 two_stage_instrumentation_amplifier_0.ota_slow_gmid_1.vota.t1 VSS.t100 sg13_lv_nmos ad=95f pd=0.88u as=0.17p ps=1.68u w=0.5u l=10u
X90 VSS.t853 VSS.t521 VSS.t852 VSS.t544 sg13_lv_nmos ad=0.1075p pd=1.34u as=0 ps=0 w=0.25u l=0.5u
X91 VSS.t889 ref_selector_0.ref_selector_r_96_0.vcal.t11 VSS.t888 rppd l=1.43u w=0.5u
X92 VDD.t235 ota_lv_gmid_comparator_0.ota_slow_gmid_ctrl_buff_1.y.t2 ota_lv_gmid_comparator_0.ota_slow_gmid_mirror_0.vout1.t7 VDD.t27 sg13_lv_pmos ad=0.27075p pd=1.805u as=0.27075p ps=1.805u w=1.425u l=0.13u
X93 VSS.t400 VSS.t401 VSS.t399 rhigh l=1.6u w=0.5u
X94 a_n9874_2009.t1 two_stage_instrumentation_amplifier_0.ota_slow_gmid_1.VN.t0 VSS.t73 rhigh l=0.96u w=0.5u
X95 VSS.t378 two_stage_instrumentation_amplifier_0.ota_slow_gmid_0.ota_slow_gmid_buffer_0.ibiasn.t0 VAMP.t52 VSS.t307 sg13_lv_nmos ad=0.1075p pd=1.34u as=0.1075p ps=1.34u w=0.25u l=0.5u
X96 a_9187_1799.t0 a_9593_1529.t0 VSS.t86 rhigh l=1.6u w=0.5u
X97 IOVDD.t33 IOVDD.t120 IOVDD.t33 IOVDD.t31 sg13_hv_pmos ad=0.285p pd=1.88u as=0 ps=0 w=1.5u l=0.5u
X98 ref_selector_0.I1MA.t9 current_source_1mA_0.current_source_1mA_2_stage_0.current_source_pass_element_0.iref.t4 IOVDD.t38 IOVDD.t31 sg13_hv_pmos ad=0.285p pd=1.88u as=0.285p ps=1.88u w=1.5u l=0.5u
X99 a_2285_1463.t2 ota_lv_gmid_comparator_0.ota_slow_gmid_ctrl_buff_0.x.t6 VDD.t36 VSS.t117 sg13_lv_nmos ad=55.85f pd=0.74u as=55.85f ps=0.74u w=0.155u l=0.5u
X100 VSS.t87 VSS.t88 VSS.t86 rhigh l=1.6u w=0.5u
X101 VSS.t850 VSS.t488 VSS.t849 VSS.t489 sg13_lv_nmos ad=0.1075p pd=1.34u as=0 ps=0 w=0.25u l=0.5u
X102 a_n14501_5507.t1 a_n14781_4821.t1 VSS.t133 rhigh l=3u w=0.5u
X103 VSS.t377 two_stage_instrumentation_amplifier_0.ota_slow_gmid_0.ota_slow_gmid_buffer_0.ibiasn.t0 VAMP.t54 VSS.t313 sg13_lv_nmos ad=0.1075p pd=1.34u as=0.1075p ps=1.34u w=0.25u l=0.5u
X104 VSS.t847 VSS.t507 VSS.t846 VSS.t508 sg13_lv_nmos ad=0.17p pd=1.68u as=0 ps=0 w=0.5u l=2u
X105 VDD.t214 VDD.t179 VDD.t213 VDD.t54 sg13_lv_pmos ad=0.34p pd=2.68u as=0 ps=0 w=1u l=0.5u
X106 VBIAS.t30 ota_lv_gmid_comparator_0.ota_slow_gmid_ctrl_buff_1.y.t3 VDD.t246 VDD.t108 sg13_lv_pmos ad=0.27075p pd=1.805u as=0.27075p ps=1.805u w=1.425u l=0.13u
X107 VSS.t427 VSS.t428 VSS.t38 rppd l=1.43u w=0.5u
X108 ref_selector_0.ref_selector_r_96_0.vcal.t5 VSS.t410 VSS.t156 rppd l=1.43u w=0.5u
X109 VDD.t211 VDD.t110 VDD.t210 VDD.t54 sg13_lv_pmos ad=0.34p pd=2.68u as=0 ps=0 w=1u l=0.5u
X110 VSS.t549 VSS.t547 VSS.t549 VSS.t843 sg13_lv_nmos ad=0.19p pd=1.38u as=0 ps=0 w=1u l=0.13u
X111 VAMP.t55 two_stage_instrumentation_amplifier_0.ota_slow_gmid_0.ota_slow_gmid_buffer_0.ibiasn.t0 VSS.t376 VSS.t321 sg13_lv_nmos ad=0.1075p pd=1.34u as=0.1075p ps=1.34u w=0.25u l=0.5u
X112 IOVDD.t218 VBIASH.t18 current_source_1mA_0.ota_med_hv_gmid_0.ota_med_hv_gmid_tail_0.tail.t3 IOVDD.t0 sg13_hv_pmos ad=0.19p pd=1.38u as=0.34p ps=2.68u w=1u l=0.5u
X113 a_7225_1529.t0 a_7631_1529.t1 VSS.t6 rhigh l=1.6u w=0.5u
X114 VBIAS.t1 two_stage_instrumentation_amplifier_0.ota_slow_gmid_1.en.t2 VDD.t13 VDD.t16 sg13_lv_pmos ad=0.19p pd=1.38u as=0.19p ps=1.38u w=1u l=0.13u
X115 a_17412_6864.t1 a_17412_6586.t1 VSS.t67 rhigh l=0.96u w=0.5u
X116 two_stage_instrumentation_amplifier_0.ota_slow_gmid_0.vout1.t4 two_stage_instrumentation_amplifier_0.ota_slow_gmid_0.vota.t4 VSS.t414 VSS.t300 sg13_lv_nmos ad=0.17p pd=1.68u as=95f ps=0.88u w=0.5u l=10u
X117 a_7225_1259.t0 a_7631_989.t1 VSS.t7 rhigh l=1.6u w=0.5u
X118 two_stage_instrumentation_amplifier_0.ota_slow_gmid_1.ota_slow_gmid_buffer_0.ibiasn.t4 two_stage_instrumentation_amplifier_0.ota_slow_gmid_1.ota_slow_gmid_buffer_0.ibiasn.t0 VSS.t996 VSS.t945 sg13_lv_nmos ad=0.1075p pd=1.34u as=0.1075p ps=1.34u w=0.25u l=0.5u
X119 a_n14501_5507.t0 a_n13602_4249.t0 VSS.t41 rhigh l=2.5u w=0.5u
X120 current_source_1mA_0.current_source_1mA_2_stage_0.current_source_pass_element_0.iref.t10 current_source_1mA_0.current_source_1mA_2_stage_0.current_source_pass_element_0.vota.t6 current_source_1mA_0.current_source_1mA_2_stage_0.vcp.t0 VSS.t1071 sg13_hv_nmos ad=0.1425p pd=1.13u as=0.1425p ps=1.13u w=0.75u l=0.5u
X121 IOVDD.t65 IOVDD.t64 IOVDD.t65 IOVDD.t16 sg13_hv_pmos ad=0.19p pd=1.38u as=0 ps=0 w=1u l=0.5u
X122 two_stage_instrumentation_amplifier_0.ota_slow_gmid_0.vout1.t7 two_stage_instrumentation_amplifier_0.ota_slow_gmid_0.en_n.t2 VSS.t263 VSS.t276 sg13_lv_nmos ad=0.228p pd=1.58u as=0.228p ps=1.58u w=1.2u l=0.13u
X123 a_n9874_4085.t1 a_n9874_3431.t1 VSS.t73 rhigh l=1.6u w=0.5u
X124 VBIAS.t0 two_stage_instrumentation_amplifier_0.ota_slow_gmid_1.en.t2 VDD.t12 VDD.t11 sg13_lv_pmos ad=0.19p pd=1.38u as=0.19p ps=1.38u w=1u l=0.13u
X125 VDD.t19 two_stage_instrumentation_amplifier_0.ota_slow_gmid_1.en.t3 VBIAS.t9 VDD.t0 sg13_lv_pmos ad=0.19p pd=1.38u as=0.19p ps=1.38u w=1u l=0.13u
X126 VSS.t10 two_stage_instrumentation_amplifier_0.ota_slow_gmid_1.en_n.t3 two_stage_instrumentation_amplifier_0.ota_slow_gmid_1.vout1.t9 VSS.t22 sg13_lv_nmos ad=0.228p pd=1.58u as=0.228p ps=1.58u w=1.2u l=0.13u
X127 VDD.t253 ota_lv_gmid_comparator_0.ota_slow_gmid_ctrl_buff_1.y.t3 VBIAS.t25 VDD.t108 sg13_lv_pmos ad=0.4845p pd=3.53u as=0.27075p ps=1.805u w=1.425u l=0.13u
X128 VBIAS.t11 two_stage_instrumentation_amplifier_0.ota_slow_gmid_1.en.t3 VDD.t21 VDD.t0 sg13_lv_pmos ad=0.34p pd=2.68u as=0.19p ps=1.38u w=1u l=0.13u
X129 ota_lv_gmid_comparator_0.ota_slow_gmid_mirror_0.vout1.t12 ota_lv_gmid_comparator_0.ota_slow_gmid_ctrl_buff_1.y.t2 VDD.t232 VDD.t27 sg13_lv_pmos ad=0.27075p pd=1.805u as=0.27075p ps=1.805u w=1.425u l=0.13u
X130 ref_selector_0.I1MA.t8 current_source_1mA_0.current_source_1mA_2_stage_0.current_source_pass_element_0.iref.t4 IOVDD.t51 IOVDD.t31 sg13_hv_pmos ad=0.285p pd=1.88u as=0.285p ps=1.88u w=1.5u l=0.5u
X131 IOVDD.t172 IOVDD.t59 IOVDD.t60 IOVDD.t3 sg13_hv_pmos ad=0.34p pd=2.68u as=0 ps=0 w=1u l=0.5u
X132 VSS.t995 two_stage_instrumentation_amplifier_0.ota_slow_gmid_1.ota_slow_gmid_buffer_0.ibiasn.t0 two_stage_instrumentation_amplifier_0.vamp1.t55 VSS.t943 sg13_lv_nmos ad=0.1075p pd=1.34u as=0.1075p ps=1.34u w=0.25u l=0.5u
X133 VSS.t842 VSS.t521 VSS.t841 VSS.t522 sg13_lv_nmos ad=0.1075p pd=1.34u as=0 ps=0 w=0.25u l=0.5u
X134 current_source_1mA_0.current_source_1mA_2_stage_0.current_source_pass_element_0.iref.t9 current_source_1mA_0.current_source_1mA_2_stage_0.current_source_pass_element_0.vota.t6 current_source_1mA_0.current_source_1mA_2_stage_0.vcp.t5 VSS.t1070 sg13_hv_nmos ad=0.1425p pd=1.13u as=0.1425p ps=1.13u w=0.75u l=0.5u
X135 a_7879_1529.t0 ref_selector_0.VMIN.t4 VSS.t251 rhigh l=1.6u w=0.5u
X136 VDD.t86 VBIAS.t32 two_stage_instrumentation_amplifier_0.ota_slow_gmid_1.ota_slow_gmid_common_0/ota_slow_gmid_pairs_0.tail.t3 VDD.t0 sg13_lv_pmos ad=0.19p pd=1.38u as=0.34p ps=2.68u w=1u l=0.5u
X137 current_source_1mA_0.current_source_1mA_2_stage_0.vcp.t1 current_source_1mA_0.current_source_1mA_2_stage_0.current_source_pass_element_0.vota.t6 current_source_1mA_0.current_source_1mA_2_stage_0.current_source_pass_element_0.iref.t7 VSS.t1069 sg13_hv_nmos ad=0.1425p pd=1.13u as=0.1425p ps=1.13u w=0.75u l=0.5u
X138 a_9187_2339.t0 a_9593_2609.t1 VSS.t86 rhigh l=1.6u w=0.5u
X139 VSS.t839 VSS.t496 VSS.t838 VSS.t511 sg13_lv_nmos ad=0.1075p pd=1.34u as=0 ps=0 w=0.25u l=0.5u
X140 VDD.t250 ota_lv_gmid_comparator_0.ota_slow_gmid_ctrl_buff_1.y.t3 VBIAS.t31 VDD.t108 sg13_lv_pmos ad=0.27075p pd=1.805u as=0.4845p ps=3.53u w=1.425u l=0.13u
X141 ref_selector_0.VMIN.t2 VSS.t157 VSS.t156 rppd l=1.43u w=0.5u
X142 VSS.t408 VSS.t409 VSS.t70 rppd l=1.43u w=0.5u
X143 a_7879_1259.t0 a_8285_989.t0 VSS.t31 rhigh l=1.6u w=0.5u
X144 a_9187_2339.t1 a_9593_2069.t1 VSS.t86 rhigh l=1.6u w=0.5u
X145 a_834_5436.t0 VDD.t104 VSS.t894 rhigh l=2.5u w=0.5u
X146 ota_lv_gmid_comparator_0.ota_slow_gmid_common_0/ota_slow_gmid_pairs_0.tail.t3 VBIAS.t33 VDD.t92 VDD.t54 sg13_lv_pmos ad=0.34p pd=2.68u as=0.19p ps=1.38u w=1u l=0.5u
X147 VSS.t375 two_stage_instrumentation_amplifier_0.ota_slow_gmid_0.ota_slow_gmid_buffer_0.ibiasn.t0 VAMP.t56 VSS.t330 sg13_lv_nmos ad=0.1075p pd=1.34u as=0.1075p ps=1.34u w=0.25u l=0.5u
X148 a_17952_7390.t0 a_18222_7112.t0 VSS.t46 rhigh l=0.96u w=0.5u
X149 ref_selector_0.I1MA.t12 current_source_1mA_0.current_source_1mA_2_stage_0.current_source_pass_element_0.iref.t4 IOVDD.t43 IOVDD.t31 sg13_hv_pmos ad=0.51p pd=3.68u as=0.285p ps=1.88u w=1.5u l=0.5u
X150 VSS.t836 VSS.t517 VSS.t835 VSS.t834 sg13_hv_nmos ad=1.4535p pd=9.23u as=0 ps=0 w=4.275u l=4u
X151 two_stage_instrumentation_amplifier_0.ota_slow_gmid_0.vout1.t10 two_stage_instrumentation_amplifier_0.ota_slow_gmid_0.en_n.t2 VSS.t273 VSS.t275 sg13_lv_nmos ad=0.408p pd=3.08u as=0.228p ps=1.58u w=1.2u l=0.13u
X152 VSS.t833 VSS.t492 VSS.t832 VSS.t493 sg13_lv_nmos ad=0.1075p pd=1.34u as=0 ps=0 w=0.25u l=0.5u
X153 non_inverting_amplifier_hv_0.ota_hv_slow_gmid_0.vref.t3 non_inverting_amplifier_hv_0.ota_hv_slow_gmid_0.vref.t2 VSS.t1014 VSS.t900 sg13_hv_nmos ad=1.4535p pd=9.23u as=0.81225p ps=4.655u w=4.275u l=10u
X154 a_9187_1799.t1 a_9593_2069.t0 VSS.t86 rhigh l=1.6u w=0.5u
X155 VAMP.t57 two_stage_instrumentation_amplifier_0.ota_slow_gmid_0.ota_slow_gmid_buffer_0.ibiasn.t0 VSS.t374 VSS.t327 sg13_lv_nmos ad=0.1075p pd=1.34u as=0.1075p ps=1.34u w=0.25u l=0.5u
X156 two_stage_instrumentation_amplifier_0.ota_slow_gmid_0.ota_slow_gmid_buffer_0.ibiasn.t4 two_stage_instrumentation_amplifier_0.ota_slow_gmid_0.ota_slow_gmid_buffer_0.ibiasn.t0 VSS.t373 VSS.t316 sg13_lv_nmos ad=0.1075p pd=1.34u as=0.1075p ps=1.34u w=0.25u l=0.5u
X157 a_n9334_4739.t0 a_n9064_4085.t1 VSS.t903 rhigh l=1.6u w=0.5u
X158 VBIASH.t16 non_inverting_amplifier_hv_0.ota_hv_slow_gmid_0.en.t3 IOVDD.t210 IOVDD.t3 sg13_hv_pmos ad=0.1122p pd=1.34u as=62.69999f ps=0.71u w=0.33u l=0.4u
X159 a_n9874_3431.t0 a_n9874_3025.t1 VSS.t73 rhigh l=1.6u w=0.5u
X160 current_source_1mA_0.current_source_1mA_2_stage_0.current_source_pass_element_0.vota.t7 current_source_1mA_0.ota_med_hv_gmid_0.ota_med_hv_gmid_mirror_0.vota.t3 cap_cmim l=26u w=20u
X161 ota_lv_gmid_comparator_0.ota_slow_gmid_ctrl_buff_0.x.t1 ota_lv_gmid_comparator_0.ota_slow_gmid_mirror_0.vout1.t15 a_2485_3315.t3 VDD.t54 sg13_lv_pmos ad=0.425p pd=3.18u as=0.2375p ps=1.63u w=1.25u l=0.13u
X162 IOVDD.t217 VBIASH.t18 current_source_1mA_0.current_source_1mA_2_stage_0.current_source_pass_element_0.vota.t1 IOVDD.t0 sg13_hv_pmos ad=0.19p pd=1.38u as=0.34p ps=2.68u w=1u l=0.5u
X163 VSS.t830 VSS.t711 VSS.t829 VSS.t712 sg13_lv_nmos ad=0.17p pd=1.68u as=0 ps=0 w=0.5u l=2u
X164 VDD.t43 VDD.t44 VSS.t147 rhigh l=3u w=0.5u
X165 VDD.t56 two_stage_instrumentation_amplifier_0.ota_slow_gmid_0.en_n.t3 two_stage_instrumentation_amplifier_0.ota_slow_gmid_0.en.t1 VDD.t55 sg13_lv_pmos ad=0.68p pd=4.68u as=0.68p ps=4.68u w=2u l=0.13u
X166 IOVDD.t13 top_conditionning_level_shifter_0.EN_HV.t2 current_source_1mA_0.current_source_1mA_2_stage_0.current_source_pass_element_0.iref.t3 IOVDD.t0 sg13_hv_pmos ad=0.38p pd=2.38u as=0.38p ps=2.38u w=2u l=0.4u
X167 VSS.t51 VSS.t52 VSS.t50 rppd l=1.43u w=0.5u
X168 IOVDD.t57 IOVDD.t56 IOVDD.t57 IOVDD.t18 sg13_hv_pmos ad=0.19p pd=1.38u as=0 ps=0 w=1u l=0.5u
X169 VSS.t827 VSS.t484 VSS.t826 VSS.t485 sg13_lv_nmos ad=0.17p pd=1.68u as=0 ps=0 w=0.5u l=2u
X170 VAMP.t39 two_stage_instrumentation_amplifier_0.ota_slow_gmid_0.ota_slow_gmid_buffer_0.ibiasn.t0 VSS.t372 VSS.t327 sg13_lv_nmos ad=0.1075p pd=1.34u as=0.1075p ps=1.34u w=0.25u l=0.5u
X171 IOVDD.t6 non_inverting_amplifier_hv_0.ota_hv_slow_gmid_0.vamp.t23 VOUT.t6 VSS.t204 sg13_hv_nmos ad=0.19p pd=1.38u as=0.19p ps=1.38u w=1u l=1u
X172 two_stage_instrumentation_amplifier_0.ota_slow_gmid_1.ota_slow_gmid_common_0/ota_slow_gmid_pairs_0.tail.t2 VBIAS.t32 VDD.t88 VDD.t0 sg13_lv_pmos ad=0.34p pd=2.68u as=0.19p ps=1.38u w=1u l=0.5u
X173 VSS.t158 VSS.t159 VSS.t28 rhigh l=0.96u w=0.5u
X174 current_source_1mA_0.current_source_1mA_2_stage_0.current_source_pass_element_0.iref.t0 top_conditionning_level_shifter_0.EN_HV.t2 IOVDD.t21 IOVDD.t26 sg13_hv_pmos ad=0.38p pd=2.38u as=0.38p ps=2.38u w=2u l=0.4u
X175 IOVDD.t49 current_source_1mA_0.current_source_1mA_2_stage_0.current_source_pass_element_0.iref.t4 ref_selector_0.I1MA.t11 IOVDD.t31 sg13_hv_pmos ad=0.285p pd=1.88u as=0.285p ps=1.88u w=1.5u l=0.5u
X176 two_stage_instrumentation_amplifier_0.ota_slow_gmid_1.en.t1 two_stage_instrumentation_amplifier_0.ota_slow_gmid_1.en_n.t4 VDD.t1 VDD.t0 sg13_lv_pmos ad=0.68p pd=4.68u as=0.68p ps=4.68u w=2u l=0.13u
X177 VSS.t824 VSS.t623 VSS.t823 VSS.t624 sg13_hv_nmos ad=0.646p pd=4.48u as=0 ps=0 w=1.9u l=2u
X178 IOVDD.t167 IOVDD.t64 IOVDD.t167 IOVDD.t16 sg13_hv_pmos ad=0.19p pd=1.38u as=0 ps=0 w=1u l=0.5u
X179 IOVDD.t210 non_inverting_amplifier_hv_0.ota_hv_slow_gmid_0.en.t3 VBIASH.t12 IOVDD.t3 sg13_hv_pmos ad=62.69999f pd=0.71u as=62.69999f ps=0.71u w=0.33u l=0.4u
X180 VSS.t994 two_stage_instrumentation_amplifier_0.ota_slow_gmid_1.ota_slow_gmid_buffer_0.ibiasn.t0 two_stage_instrumentation_amplifier_0.vamp1.t54 VSS.t929 sg13_lv_nmos ad=0.1075p pd=1.34u as=0.1075p ps=1.34u w=0.25u l=0.5u
X181 VOUT.t7 non_inverting_amplifier_hv_0.ota_hv_slow_gmid_0.vamp.t23 IOVDD.t5 VSS.t203 sg13_hv_nmos ad=0.34p pd=2.68u as=0.19p ps=1.38u w=1u l=1u
X182 VSS.t414 two_stage_instrumentation_amplifier_0.ota_slow_gmid_0.vota.t4 two_stage_instrumentation_amplifier_0.ota_slow_gmid_0.vout1.t3 VSS.t303 sg13_lv_nmos ad=95f pd=0.88u as=0.17p ps=1.68u w=0.5u l=10u
X183 two_stage_instrumentation_amplifier_0.vamp1.t53 two_stage_instrumentation_amplifier_0.ota_slow_gmid_1.ota_slow_gmid_buffer_0.ibiasn.t0 VSS.t993 VSS.t927 sg13_lv_nmos ad=0.1075p pd=1.34u as=0.1075p ps=1.34u w=0.25u l=0.5u
X184 non_inverting_amplifier_hv_0.ota_hv_slow_gmid_0.vamp.t15 non_inverting_amplifier_hv_0.ota_hv_slow_gmid_0.en_n.t5 VSS.t225 VSS.t238 sg13_hv_nmos ad=0.204p pd=1.88u as=0.114p ps=0.98u w=0.6u l=0.45u
X185 VSS.t299 non_inverting_amplifier_hv_0.ota_hv_slow_gmid_0.ibiasn.t3 VOUT.t0 VSS.t201 sg13_hv_nmos ad=0.19p pd=1.38u as=0.19p ps=1.38u w=1u l=1u
X186 VSS.t71 VSS.t72 VSS.t70 rppd l=1.43u w=0.5u
X187 two_stage_instrumentation_amplifier_0.ota_slow_gmid_0.vout1.t16 two_stage_instrumentation_amplifier_0.ota_slow_gmid_0.en_n.t4 VSS.t284 VSS.t293 sg13_lv_nmos ad=0.408p pd=3.08u as=0.228p ps=1.58u w=1.2u l=0.13u
X188 VSS.t821 VSS.t496 VSS.t820 VSS.t514 sg13_lv_nmos ad=0.1075p pd=1.34u as=0 ps=0 w=0.25u l=0.5u
X189 vref.t0 S0.t0 ref_selector_0.ref_selector_r_refs_0.R0.t0 VSS.t34 sg13_lv_nmos ad=1.02p pd=6.68u as=1.02p ps=6.68u w=3u l=0.13u
X190 VBIASH.t4 non_inverting_amplifier_hv_0.ota_hv_slow_gmid_0.en.t3 IOVDD.t207 IOVDD.t3 sg13_hv_pmos ad=62.69999f pd=0.71u as=62.69999f ps=0.71u w=0.33u l=0.4u
X191 VSS.t818 VSS.t496 VSS.t817 VSS.t511 sg13_lv_nmos ad=0.1075p pd=1.34u as=0 ps=0 w=0.25u l=0.5u
X192 VSS.t815 VSS.t477 VSS.t814 VSS.t478 sg13_lv_nmos ad=0.17p pd=1.68u as=0 ps=0 w=0.5u l=2u
X193 non_inverting_amplifier_hv_0.ota_hv_slow_gmid_0.en.t1 non_inverting_amplifier_hv_0.ota_hv_slow_gmid_0.en_n.t6 VSS.t240 VSS.t239 sg13_hv_nmos ad=0.408p pd=3.08u as=0.408p ps=3.08u w=1.2u l=0.45u
X194 a_18762_7916.t1 a_19032_7638.t1 VSS.t5 rhigh l=0.96u w=0.5u
X195 VSS.t98 two_stage_instrumentation_amplifier_0.ota_slow_gmid_1.ota_slow_gmid_mirror_0.vref.t2 two_stage_instrumentation_amplifier_0.ota_slow_gmid_1.ota_slow_gmid_mirror_0.vref.t4 VSS.t100 sg13_lv_nmos ad=95f pd=0.88u as=0.17p ps=1.68u w=0.5u l=10u
X196 a_2285_1463.t11 ota_lv_gmid_comparator_0.ota_slow_gmid_mirror_0.vout1.t15 ota_lv_gmid_comparator_0.ota_slow_gmid_ctrl_buff_0.x.t5 VSS.t257 sg13_lv_nmos ad=0.38p pd=2.38u as=0.38p ps=2.38u w=2u l=0.13u
X197 VSS.t812 VSS.t492 VSS.t811 VSS.t640 sg13_lv_nmos ad=0.1075p pd=1.34u as=0 ps=0 w=0.25u l=0.5u
X198 VAMP.t40 two_stage_instrumentation_amplifier_0.ota_slow_gmid_0.ota_slow_gmid_buffer_0.ibiasn.t0 VSS.t371 VSS.t316 sg13_lv_nmos ad=0.1075p pd=1.34u as=0.1075p ps=1.34u w=0.25u l=0.5u
X199 VDD.t208 VDD.t140 VDD.t156 VDD.t27 sg13_lv_pmos ad=0.85p pd=5.68u as=0 ps=0 w=2.5u l=2u
X200 two_stage_instrumentation_amplifier_0.ota_slow_gmid_0.vota.t2 two_stage_instrumentation_amplifier_0.ota_slow_gmid_0.ota_slow_gmid_mirror_0.vref.t2 VSS.t302 VSS.t300 sg13_lv_nmos ad=0.17p pd=1.68u as=95f ps=0.88u w=0.5u l=10u
X201 VAMP.t42 two_stage_instrumentation_amplifier_0.ota_slow_gmid_0.ota_slow_gmid_buffer_0.ibiasn.t0 VSS.t370 VSS.t311 sg13_lv_nmos ad=0.1075p pd=1.34u as=0.1075p ps=1.34u w=0.25u l=0.5u
X202 non_inverting_amplifier_hv_0.top_conditionning_gain_s3_0.vn3.t1 rmod.t1 VSS.t891 rhigh l=1.23u w=0.5u
X203 a_18222_8968.t0 a_17952_8690.t0 VSS.t46 rhigh l=0.96u w=0.5u
X204 VDD.t10 two_stage_instrumentation_amplifier_0.ota_slow_gmid_1.en.t2 VBIAS.t5 VDD.t14 sg13_lv_pmos ad=0.19p pd=1.38u as=0.34p ps=2.68u w=1u l=0.13u
X205 ref_selector_0.I1MA.t7 current_source_1mA_0.current_source_1mA_2_stage_0.current_source_pass_element_0.iref.t4 IOVDD.t37 IOVDD.t31 sg13_hv_pmos ad=0.285p pd=1.88u as=0.285p ps=1.88u w=1.5u l=0.5u
X206 VSS.t160 ota_lv_gmid_comparator_0.ota_slow_gmid_ctrl_buff_0.x.t7 a_2485_3315.t2 VDD.t42 sg13_lv_pmos ad=95f pd=0.88u as=95f ps=0.88u w=0.5u l=1u
X207 non_inverting_amplifier_hv_0.ota_hv_slow_gmid_0.en_n.t1 top_conditionning_level_shifter_0.EN_HV.t3 VSS.t210 VSS.t209 sg13_hv_nmos ad=0.408p pd=3.08u as=0.408p ps=3.08u w=1.2u l=0.45u
X208 VDD.t205 VDD.t164 VDD.t204 VDD.t0 sg13_lv_pmos ad=0.34p pd=2.68u as=0 ps=0 w=1u l=0.5u
X209 VSS.t809 VSS.t696 VSS.t808 VSS.t697 sg13_lv_nmos ad=0.17p pd=1.68u as=0 ps=0 w=0.5u l=2u
X210 VDD.t18 two_stage_instrumentation_amplifier_0.ota_slow_gmid_1.en.t3 VBIAS.t10 VDD.t0 sg13_lv_pmos ad=0.19p pd=1.38u as=0.34p ps=2.68u w=1u l=0.13u
X211 VSS.t154 VSS.t155 VSS.t153 rhigh l=0.96u w=0.5u