* NGSPICE file created from soc_system_top.ext - technology: ihp-sg13g2

* Black-box entry subcircuit for sg13g2_fill_1 abstract view
.subckt sg13g2_fill_1 VDD VSS
.ends

* Black-box entry subcircuit for sg13g2_decap_8 abstract view
.subckt sg13g2_decap_8 VDD VSS
.ends

* Black-box entry subcircuit for sg13g2_inv_1 abstract view
.subckt sg13g2_inv_1 VDD Y A VSS
.ends

* Black-box entry subcircuit for sg13g2_fill_2 abstract view
.subckt sg13g2_fill_2 VDD VSS
.ends

* Black-box entry subcircuit for sg13g2_nand2_1 abstract view
.subckt sg13g2_nand2_1 Y A B VDD VSS
.ends

* Black-box entry subcircuit for sg13g2_dfrbpq_1 abstract view
.subckt sg13g2_dfrbpq_1 RESET_B VSS VDD D Q CLK
.ends

* Black-box entry subcircuit for sg13g2_decap_4 abstract view
.subckt sg13g2_decap_4 VDD VSS
.ends

* Black-box entry subcircuit for sg13g2_a21oi_1 abstract view
.subckt sg13g2_a21oi_1 VSS VDD A1 A2 Y B1
.ends

* Black-box entry subcircuit for sg13g2_dllrq_1 abstract view
.subckt sg13g2_dllrq_1 D GATE_N RESET_B Q VDD VSS
.ends

* Black-box entry subcircuit for sg13g2_buf_1 abstract view
.subckt sg13g2_buf_1 A X VDD VSS
.ends

* Black-box entry subcircuit for sg13g2_and2_1 abstract view
.subckt sg13g2_and2_1 A B X VDD VSS
.ends

* Black-box entry subcircuit for sg13g2_nor2_1 abstract view
.subckt sg13g2_nor2_1 A B Y VDD VSS
.ends

* Black-box entry subcircuit for sg13g2_nor3_1 abstract view
.subckt sg13g2_nor3_1 A B C Y VDD VSS
.ends

* Black-box entry subcircuit for sg13g2_nand3_1 abstract view
.subckt sg13g2_nand3_1 B C A Y VDD VSS
.ends

* Black-box entry subcircuit for sg13g2_nor2b_1 abstract view
.subckt sg13g2_nor2b_1 A B_N Y VDD VSS
.ends

* Black-box entry subcircuit for sg13g2_and3_1 abstract view
.subckt sg13g2_and3_1 X A B C VDD VSS
.ends

* Black-box entry subcircuit for sg13g2_a21o_1 abstract view
.subckt sg13g2_a21o_1 A2 A1 B1 X VDD VSS
.ends

* Black-box entry subcircuit for sg13g2_mux2_1 abstract view
.subckt sg13g2_mux2_1 A0 A1 S X VDD VSS
.ends

* Black-box entry subcircuit for bondpad_70x70_novias abstract view
.subckt bondpad_70x70_novias pad
.ends

* Black-box entry subcircuit for sg13g2_xnor2_1 abstract view
.subckt sg13g2_xnor2_1 Y A B VDD VSS
.ends

* Black-box entry subcircuit for sg13g2_tiehi abstract view
.subckt sg13g2_tiehi VDD VSS L_HI
.ends

* Black-box entry subcircuit for sg13g2_IOPadAnalog abstract view
.subckt sg13g2_IOPadAnalog iovdd iovss pad padres vdd vss
.ends

* Black-box entry subcircuit for sg13g2_xor2_1 abstract view
.subckt sg13g2_xor2_1 B A X VDD VSS
.ends

* Black-box entry subcircuit for sg13g2_mux4_1 abstract view
.subckt sg13g2_mux4_1 S0 A0 A1 A2 A3 S1 X VDD VSS
.ends

* Black-box entry subcircuit for sg13g2_nand2b_1 abstract view
.subckt sg13g2_nand2b_1 Y B A_N VDD VSS
.ends

* Black-box entry subcircuit for sg13g2_o21ai_1 abstract view
.subckt sg13g2_o21ai_1 B1 VDD Y VSS A1 A2
.ends

* Black-box entry subcircuit for sg13g2_a22oi_1 abstract view
.subckt sg13g2_a22oi_1 Y B1 B2 A2 A1 VDD VSS
.ends

* Black-box entry subcircuit for sg13g2_nand4_1 abstract view
.subckt sg13g2_nand4_1 B C A Y VDD VSS D
.ends

* Black-box entry subcircuit for sg13g2_or2_1 abstract view
.subckt sg13g2_or2_1 VSS VDD X B A
.ends

* Black-box entry subcircuit for sg13g2_and4_1 abstract view
.subckt sg13g2_and4_1 A B C D X VDD VSS
.ends

* Black-box entry subcircuit for sg13g2_Corner abstract view
.subckt sg13g2_Corner iovdd iovss vdd vss
.ends

* Black-box entry subcircuit for sg13g2_or3_1 abstract view
.subckt sg13g2_or3_1 A B C X VDD VSS
.ends

* Black-box entry subcircuit for sg13g2_IOPadOut16mA abstract view
.subckt sg13g2_IOPadOut16mA c2p iovdd iovss pad vdd vss
.ends

* Black-box entry subcircuit for sg13g2_nor4_1 abstract view
.subckt sg13g2_nor4_1 A B C D Y VDD VSS
.ends

* Black-box entry subcircuit for sg13g2_IOPadIn abstract view
.subckt sg13g2_IOPadIn iovdd iovss p2c pad vdd vss
.ends

* Black-box entry subcircuit for sg13g2_IOPadIOVdd abstract view
.subckt sg13g2_IOPadIOVdd iovdd iovss vdd vss
.ends

* Black-box entry subcircuit for sg13g2_IOPadVss abstract view
.subckt sg13g2_IOPadVss iovdd iovss vdd vss
.ends

* Black-box entry subcircuit for sg13g2_a221oi_1 abstract view
.subckt sg13g2_a221oi_1 VDD VSS B2 C1 B1 A1 Y A2
.ends

* Black-box entry subcircuit for SoC_Analog_Top abstract view
.subckt SoC_Analog_Top RESET CLK RAMP_EN RAMP_RESET ADC_SEL_CAL ADC_SEL_MEAS ADC_CMP_OUT
+ SC_CMP_RESULT SC_EN SC_SEL_SENSOR SC_SEL_CAL SC_S3 SC_S2 SC_S1 SC_S0 VDD SC_VREF
+ VRAMP VDD1v5 VSS SC_VOUT SENSOR
.ends

* Black-box entry subcircuit for sg13g2_or4_1 abstract view
.subckt sg13g2_or4_1 A B C D X VDD VSS
.ends

* Black-box entry subcircuit for sg13g2_IOPadVdd abstract view
.subckt sg13g2_IOPadVdd iovdd iovss vdd vss
.ends

* Black-box entry subcircuit for sg13g2_IOPadIOVss abstract view
.subckt sg13g2_IOPadIOVss iovdd iovss vdd vss
.ends

.subckt soc_system_top IOVDD VDD1v5 VSS_uq7 adc_done_PAD clk_PAD reset_n_PAD sc_enable_PAD
+ sc_vout_PAD sc_vref_PAD sensor_PAD state_out_0_PAD state_out_1_PAD state_out_2_PAD
+ trigger_PAD tx_PAD vbg_PAD vramp_PAD IOVSS VDD_uq6
XFILLER_23_612 VDD_uq6 VSS_uq7 sg13g2_fill_1
XFILLER_22_177 VDD_uq6 VSS_uq7 sg13g2_decap_8
XFILLER_22_100 VDD_uq6 VSS_uq7 sg13g2_decap_8
XFILLER_7_7 VDD_uq6 VSS_uq7 sg13g2_decap_8
XFILLER_2_549 VDD_uq6 VSS_uq7 sg13g2_decap_8
X_432_ VDD_uq6 _798_/A _895_/Q VSS_uq7 sg13g2_inv_1
XFILLER_14_623 VDD_uq6 VSS_uq7 sg13g2_fill_2
XFILLER_14_612 VDD_uq6 VSS_uq7 sg13g2_decap_8
XFILLER_26_74 VDD_uq6 VSS_uq7 sg13g2_decap_8
X_501_ _927_/D _820_/B _849_/A VDD_uq6 VSS_uq7 sg13g2_nand2_1
XFILLER_13_111 VDD_uq6 VSS_uq7 sg13g2_decap_8
XFILLER_9_126 VDD_uq6 VSS_uq7 sg13g2_decap_8
XFILLER_5_365 VDD_uq6 VSS_uq7 sg13g2_decap_8
XFILLER_24_409 VDD_uq6 VSS_uq7 sg13g2_fill_2
XFILLER_3_78 VDD_uq6 VSS_uq7 sg13g2_decap_8
XFILLER_17_450 VDD_uq6 VSS_uq7 sg13g2_fill_2
XFILLER_17_494 VDD_uq6 VSS_uq7 sg13g2_fill_1
XFILLER_23_431 VDD_uq6 VSS_uq7 sg13g2_decap_8
XFILLER_10_103 VDD_uq6 VSS_uq7 sg13g2_decap_8
XFILLER_2_357 VDD_uq6 VSS_uq7 sg13g2_decap_8
X_981_ fanout21/X VSS_uq7 VDD_uq6 _981_/D _981_/Q _819_/A sg13g2_dfrbpq_1
XFILLER_12_65 VDD_uq6 VSS_uq7 sg13g2_fill_2
XFILLER_14_475 VDD_uq6 VSS_uq7 sg13g2_decap_8
XFILLER_18_269 VDD_uq6 VSS_uq7 sg13g2_decap_8
XFILLER_24_228 VDD_uq6 VSS_uq7 sg13g2_fill_1
XFILLER_28_567 VDD_uq6 VSS_uq7 sg13g2_fill_1
XFILLER_23_272 VDD_uq6 VSS_uq7 sg13g2_decap_8
XFILLER_23_31 VDD_uq6 VSS_uq7 sg13g2_decap_8
XFILLER_11_445 VDD_uq6 VSS_uq7 sg13g2_decap_8
X_895_ fanout38/X VSS_uq7 VDD_uq6 _895_/D _895_/Q _931_/CLK sg13g2_dfrbpq_1
XFILLER_3_633 VDD_uq6 VSS_uq7 sg13g2_fill_1
X_964_ fanout25/X VSS_uq7 VDD_uq6 _964_/D _964_/Q _487_/A sg13g2_dfrbpq_1
XFILLER_2_187 VDD_uq6 VSS_uq7 sg13g2_decap_8
XFILLER_2_110 VDD_uq6 VSS_uq7 sg13g2_decap_8
XFILLER_19_589 VDD_uq6 VSS_uq7 sg13g2_fill_2
XFILLER_0_35 VDD_uq6 VSS_uq7 sg13g2_decap_8
XFILLER_29_0 VDD_uq6 VSS_uq7 sg13g2_decap_8
XFILLER_25_504 VDD_uq6 VSS_uq7 sg13g2_decap_8
XFILLER_20_231 VDD_uq6 VSS_uq7 sg13g2_decap_8
XFILLER_0_614 VDD_uq6 VSS_uq7 sg13g2_decap_8
XFILLER_28_386 VDD_uq6 VSS_uq7 sg13g2_decap_4
XFILLER_28_342 VDD_uq6 VSS_uq7 sg13g2_decap_8
X_680_ VSS_uq7 VDD_uq6 _678_/B _678_/C _680_/Y _761_/A sg13g2_a21oi_1
XFILLER_18_75 VDD_uq6 VSS_uq7 sg13g2_decap_8
XFILLER_24_581 VDD_uq6 VSS_uq7 sg13g2_decap_8
XFILLER_16_559 VDD_uq6 VSS_uq7 sg13g2_decap_8
XFILLER_22_7 VDD_uq6 VSS_uq7 sg13g2_decap_8
X_878_ fanout33/X VSS_uq7 VDD_uq6 _878_/D _878_/Q _882_/CLK sg13g2_dfrbpq_1
X_947_ _947_/D _487_/A _947__59/L_HI _947_/Q VDD_uq6 VSS_uq7 sg13g2_dllrq_1
Xfanout7 _888_/Q _755_/B VDD_uq6 VSS_uq7 sg13g2_buf_1
XFILLER_29_117 VDD_uq6 VSS_uq7 sg13g2_decap_8
XFILLER_25_323 VDD_uq6 VSS_uq7 sg13g2_decap_8
XFILLER_13_529 VDD_uq6 VSS_uq7 sg13g2_decap_8
XFILLER_20_43 VDD_uq6 VSS_uq7 sg13g2_decap_8
XFILLER_29_640 VDD_uq6 VSS_uq7 sg13g2_decap_8
X_801_ _802_/B _801_/B _896_/D VDD_uq6 VSS_uq7 sg13g2_and2_1
XFILLER_29_96 VDD_uq6 VSS_uq7 sg13g2_decap_8
XFILLER_29_63 VDD_uq6 VSS_uq7 sg13g2_decap_8
XFILLER_0_466 VDD_uq6 VSS_uq7 sg13g2_decap_8
X_732_ _742_/A _880_/Q _732_/Y VDD_uq6 VSS_uq7 sg13g2_nor2_1
X_663_ VSS_uq7 VDD_uq6 _705_/B _662_/X _677_/C _661_/X sg13g2_a21oi_1
X_594_ _602_/A _594_/B _596_/B _982_/D VDD_uq6 VSS_uq7 sg13g2_nor3_1
XFILLER_12_584 VDD_uq6 VSS_uq7 sg13g2_decap_8
XFILLER_8_511 VDD_uq6 VSS_uq7 sg13g2_decap_8
XFILLER_26_109 VDD_uq6 VSS_uq7 sg13g2_decap_4
XFILLER_26_665 VDD_uq6 VSS_uq7 sg13g2_fill_1
XFILLER_13_315 VDD_uq6 VSS_uq7 sg13g2_decap_8
XFILLER_15_21 VDD_uq6 VSS_uq7 sg13g2_decap_8
XFILLER_25_197 VDD_uq6 VSS_uq7 sg13g2_fill_2
XFILLER_25_186 VDD_uq6 VSS_uq7 sg13g2_decap_8
XFILLER_21_381 VDD_uq6 VSS_uq7 sg13g2_decap_8
XFILLER_0_230 VDD_uq6 VSS_uq7 sg13g2_decap_8
X_715_ _718_/B _718_/C _715_/A _715_/Y VDD_uq6 VSS_uq7 sg13g2_nand3_1
XFILLER_17_654 VDD_uq6 VSS_uq7 sg13g2_decap_8
XFILLER_17_665 VDD_uq6 VSS_uq7 sg13g2_fill_1
X_646_ _792_/A _755_/B _647_/D VDD_uq6 VSS_uq7 sg13g2_nor2b_1
X_577_ _584_/B _976_/Q _977_/Q _978_/Q VDD_uq6 VSS_uq7 sg13g2_and3_1
XFILLER_8_385 VDD_uq6 VSS_uq7 sg13g2_decap_8
XFILLER_12_370 VDD_uq6 VSS_uq7 sg13g2_decap_8
XFILLER_27_429 VDD_uq6 VSS_uq7 sg13g2_decap_8
XFILLER_27_407 VDD_uq6 VSS_uq7 sg13g2_decap_8
XFILLER_11_0 VDD_uq6 VSS_uq7 sg13g2_decap_8
XFILLER_23_635 VDD_uq6 VSS_uq7 sg13g2_fill_2
XFILLER_22_156 VDD_uq6 VSS_uq7 sg13g2_decap_8
XFILLER_2_517 VDD_uq6 VSS_uq7 sg13g2_decap_8
X_500_ _835_/A _500_/C _925_/Q _849_/A VDD_uq6 VSS_uq7 sg13g2_nand3_1
X_431_ VDD_uq6 _508_/B _896_/Q VSS_uq7 sg13g2_inv_1
XFILLER_26_495 VDD_uq6 VSS_uq7 sg13g2_decap_8
XFILLER_26_53 VDD_uq6 VSS_uq7 sg13g2_decap_8
XFILLER_9_105 VDD_uq6 VSS_uq7 sg13g2_decap_8
XFILLER_13_189 VDD_uq6 VSS_uq7 sg13g2_decap_8
XFILLER_3_57 VDD_uq6 VSS_uq7 sg13g2_decap_8
X_629_ _767_/B _629_/B _632_/B VDD_uq6 VSS_uq7 sg13g2_nor2_1
XFILLER_17_473 VDD_uq6 VSS_uq7 sg13g2_decap_8
XFILLER_9_661 VDD_uq6 VSS_uq7 sg13g2_decap_4
XFILLER_23_410 VDD_uq6 VSS_uq7 sg13g2_decap_8
XFILLER_11_638 VDD_uq6 VSS_uq7 sg13g2_fill_2
XFILLER_23_487 VDD_uq6 VSS_uq7 sg13g2_decap_8
XFILLER_2_336 VDD_uq6 VSS_uq7 sg13g2_decap_8
X_980_ fanout21/X VSS_uq7 VDD_uq6 _980_/D _980_/Q _819_/A sg13g2_dfrbpq_1
XFILLER_18_248 VDD_uq6 VSS_uq7 sg13g2_decap_8
XFILLER_26_270 VDD_uq6 VSS_uq7 sg13g2_decap_8
XFILLER_14_454 VDD_uq6 VSS_uq7 sg13g2_decap_8
XFILLER_20_457 VDD_uq6 VSS_uq7 sg13g2_fill_2
XFILLER_23_251 VDD_uq6 VSS_uq7 sg13g2_decap_8
XFILLER_11_424 VDD_uq6 VSS_uq7 sg13g2_decap_8
XFILLER_3_612 VDD_uq6 VSS_uq7 sg13g2_decap_8
XFILLER_23_76 VDD_uq6 VSS_uq7 sg13g2_decap_4
XFILLER_7_439 VDD_uq6 VSS_uq7 sg13g2_decap_8
X_894_ fanout38/X VSS_uq7 VDD_uq6 _894_/D _894_/Q _931_/CLK sg13g2_dfrbpq_1
X_963_ fanout25/X VSS_uq7 VDD_uq6 _963_/D _963_/Q _487_/A sg13g2_dfrbpq_1
XFILLER_2_166 VDD_uq6 VSS_uq7 sg13g2_decap_8
XFILLER_0_14 VDD_uq6 VSS_uq7 sg13g2_decap_8
XFILLER_14_284 VDD_uq6 VSS_uq7 sg13g2_decap_8
XFILLER_6_494 VDD_uq6 VSS_uq7 sg13g2_decap_8
XFILLER_20_210 VDD_uq6 VSS_uq7 sg13g2_decap_8
XFILLER_20_276 VDD_uq6 VSS_uq7 sg13g2_decap_8
XFILLER_16_538 VDD_uq6 VSS_uq7 sg13g2_fill_2
XFILLER_7_214 VDD_uq6 VSS_uq7 sg13g2_decap_8
XFILLER_7_247 VDD_uq6 VSS_uq7 sg13g2_decap_4
XFILLER_3_442 VDD_uq6 VSS_uq7 sg13g2_decap_4
X_877_ fanout36/X VSS_uq7 VDD_uq6 _877_/D _877_/Q _935_/CLK sg13g2_dfrbpq_1
X_946_ _946_/D _487_/A _946__58/L_HI _946_/Q VDD_uq6 VSS_uq7 sg13g2_dllrq_1
XFILLER_15_7 VDD_uq6 VSS_uq7 sg13g2_decap_8
XFILLER_19_321 VDD_uq6 VSS_uq7 sg13g2_decap_4
XFILLER_22_519 VDD_uq6 VSS_uq7 sg13g2_decap_8
XFILLER_15_582 VDD_uq6 VSS_uq7 sg13g2_decap_8
XFILLER_19_387 VDD_uq6 VSS_uq7 sg13g2_decap_8
Xfanout8 _874_/Q _792_/A VDD_uq6 VSS_uq7 sg13g2_buf_1
XFILLER_6_291 VDD_uq6 VSS_uq7 sg13g2_decap_8
XFILLER_25_302 VDD_uq6 VSS_uq7 sg13g2_decap_8
XFILLER_21_596 VDD_uq6 VSS_uq7 sg13g2_decap_8
XFILLER_13_508 VDD_uq6 VSS_uq7 sg13g2_decap_8
XFILLER_20_99 VDD_uq6 VSS_uq7 sg13g2_decap_8
X_800_ _799_/C _895_/Q _896_/Q _801_/B VDD_uq6 VSS_uq7 sg13g2_a21o_1
X_662_ _756_/B _650_/B _662_/S _662_/X VDD_uq6 VSS_uq7 sg13g2_mux2_1
XFILLER_29_75 VDD_uq6 VSS_uq7 sg13g2_decap_8
XFILLER_29_42 VDD_uq6 VSS_uq7 sg13g2_decap_8
XFILLER_0_445 VDD_uq6 VSS_uq7 sg13g2_decap_8
X_731_ VSS_uq7 VDD_uq6 _726_/X _730_/Y _879_/D _729_/Y sg13g2_a21oi_1
X_593_ _596_/B _981_/Q _982_/Q _593_/C VDD_uq6 VSS_uq7 sg13g2_and3_1
XFILLER_16_346 VDD_uq6 VSS_uq7 sg13g2_fill_1
XFILLER_12_563 VDD_uq6 VSS_uq7 sg13g2_decap_8
XFILLER_3_294 VDD_uq6 VSS_uq7 sg13g2_decap_8
X_929_ fanout35/X VSS_uq7 VDD_uq6 _929_/D _929_/Q _931_/CLK sg13g2_dfrbpq_1
XFILLER_19_140 VDD_uq6 VSS_uq7 sg13g2_decap_8
XFILLER_19_162 VDD_uq6 VSS_uq7 sg13g2_decap_8
XFILLER_26_600 VDD_uq6 VSS_uq7 sg13g2_decap_8
XFILLER_25_165 VDD_uq6 VSS_uq7 sg13g2_decap_8
XFILLER_13_305 VDD_uq6 VSS_uq7 sg13g2_decap_4
XFILLER_21_360 VDD_uq6 VSS_uq7 sg13g2_decap_8
XFILLER_9_309 VDD_uq6 VSS_uq7 sg13g2_decap_8
XFILLER_15_77 VDD_uq6 VSS_uq7 sg13g2_decap_4
XFILLER_5_559 VDD_uq6 VSS_uq7 sg13g2_decap_8
XFILLER_17_633 VDD_uq6 VSS_uq7 sg13g2_decap_8
X_645_ _715_/A _755_/B _647_/C VDD_uq6 VSS_uq7 sg13g2_nor2_1
X_714_ _713_/B _713_/A _713_/C _718_/C VDD_uq6 VSS_uq7 sg13g2_a21o_1
XFILLER_29_493 VDD_uq6 VSS_uq7 sg13g2_decap_8
XFILLER_0_286 VDD_uq6 VSS_uq7 sg13g2_decap_8
X_576_ VSS_uq7 VDD_uq6 _976_/Q _977_/Q _578_/B _978_/Q sg13g2_a21oi_1
XFILLER_16_154 VDD_uq6 VSS_uq7 sg13g2_decap_8
XFILLER_4_570 VDD_uq6 VSS_uq7 sg13g2_decap_8
XFILLER_8_364 VDD_uq6 VSS_uq7 sg13g2_decap_8
XIO_BOND_sg13g2_IOPadAnalog_sensor sensor_PAD bondpad_70x70_novias
XFILLER_23_603 VDD_uq6 VSS_uq7 sg13g2_decap_8
XFILLER_22_135 VDD_uq6 VSS_uq7 sg13g2_decap_8
XFILLER_26_32 VDD_uq6 VSS_uq7 sg13g2_decap_8
XFILLER_14_658 VDD_uq6 VSS_uq7 sg13g2_decap_8
X_430_ VDD_uq6 _508_/A _897_/Q VSS_uq7 sg13g2_inv_1
XFILLER_26_474 VDD_uq6 VSS_uq7 sg13g2_decap_8
XFILLER_13_168 VDD_uq6 VSS_uq7 sg13g2_decap_8
XFILLER_5_323 VDD_uq6 VSS_uq7 sg13g2_decap_8
XFILLER_1_573 VDD_uq6 VSS_uq7 sg13g2_decap_8
XFILLER_1_562 VDD_uq6 VSS_uq7 sg13g2_fill_2
XFILLER_3_36 VDD_uq6 VSS_uq7 sg13g2_decap_8
XFILLER_3_14 VDD_uq6 VSS_uq7 sg13g2_decap_8
X_628_ _628_/A _627_/Y _872_/D VDD_uq6 VSS_uq7 sg13g2_nor2b_1
XFILLER_17_452 VDD_uq6 VSS_uq7 sg13g2_fill_1
XFILLER_20_617 VDD_uq6 VSS_uq7 sg13g2_decap_8
XFILLER_20_628 VDD_uq6 VSS_uq7 sg13g2_fill_1
XFILLER_9_640 VDD_uq6 VSS_uq7 sg13g2_decap_8
X_559_ _970_/Q _560_/B _561_/B VDD_uq6 VSS_uq7 sg13g2_nor2_1
XFILLER_27_216 VDD_uq6 VSS_uq7 sg13g2_fill_2
XFILLER_12_67 VDD_uq6 VSS_uq7 sg13g2_fill_1
XFILLER_2_315 VDD_uq6 VSS_uq7 sg13g2_decap_8
XFILLER_18_227 VDD_uq6 VSS_uq7 sg13g2_decap_8
XFILLER_6_610 VDD_uq6 VSS_uq7 sg13g2_decap_8
XFILLER_14_433 VDD_uq6 VSS_uq7 sg13g2_decap_8
XFILLER_6_665 VDD_uq6 VSS_uq7 sg13g2_fill_1
XFILLER_5_175 VDD_uq6 VSS_uq7 sg13g2_decap_8
XFILLER_24_219 VDD_uq6 VSS_uq7 sg13g2_decap_8
XFILLER_17_271 VDD_uq6 VSS_uq7 sg13g2_fill_1
XFILLER_20_436 VDD_uq6 VSS_uq7 sg13g2_decap_8
XFILLER_9_470 VDD_uq6 VSS_uq7 sg13g2_decap_8
XFILLER_15_219 VDD_uq6 VSS_uq7 sg13g2_decap_8
XFILLER_23_230 VDD_uq6 VSS_uq7 sg13g2_fill_2
XFILLER_23_55 VDD_uq6 VSS_uq7 sg13g2_decap_8
XFILLER_7_418 VDD_uq6 VSS_uq7 sg13g2_decap_8
XFILLER_11_403 VDD_uq6 VSS_uq7 sg13g2_decap_8
XFILLER_3_646 VDD_uq6 VSS_uq7 sg13g2_decap_8
XFILLER_2_145 VDD_uq6 VSS_uq7 sg13g2_decap_8
XFILLER_19_536 VDD_uq6 VSS_uq7 sg13g2_decap_4
X_893_ _494_/C VSS_uq7 VDD_uq6 _893_/D _893_/Q _931_/CLK sg13g2_dfrbpq_1
X_962_ fanout25/X VSS_uq7 VDD_uq6 _962_/D _962_/Q _487_/A sg13g2_dfrbpq_1
XFILLER_27_591 VDD_uq6 VSS_uq7 sg13g2_decap_8
XFILLER_19_558 VDD_uq6 VSS_uq7 sg13g2_decap_8
XFILLER_9_57 VDD_uq6 VSS_uq7 sg13g2_decap_8
XFILLER_9_68 VDD_uq6 VSS_uq7 sg13g2_fill_1
XFILLER_10_480 VDD_uq6 VSS_uq7 sg13g2_decap_8
XFILLER_6_473 VDD_uq6 VSS_uq7 sg13g2_decap_8
XFILLER_25_539 VDD_uq6 VSS_uq7 sg13g2_decap_8
XFILLER_20_266 VDD_uq6 VSS_uq7 sg13g2_decap_4
XFILLER_0_649 VDD_uq6 VSS_uq7 sg13g2_fill_1
XFILLER_16_517 VDD_uq6 VSS_uq7 sg13g2_decap_8
XFILLER_3_476 VDD_uq6 VSS_uq7 sg13g2_decap_8
XFILLER_1_0 VDD_uq6 VSS_uq7 sg13g2_decap_8
X_945_ fanout35/X VSS_uq7 VDD_uq6 _945_/D _945_/Q _487_/A sg13g2_dfrbpq_1
XIO_BOND_sg13g2_IOPadAnalog_vdd1v5 VDD1v5 bondpad_70x70_novias
X_876_ fanout35/X VSS_uq7 VDD_uq6 _876_/D _876_/Q _941_/CLK sg13g2_dfrbpq_1
XFILLER_19_300 VDD_uq6 VSS_uq7 sg13g2_decap_8
XFILLER_19_366 VDD_uq6 VSS_uq7 sg13g2_decap_8
XFILLER_15_561 VDD_uq6 VSS_uq7 sg13g2_decap_8
Xfanout9 _874_/Q _781_/A VDD_uq6 VSS_uq7 sg13g2_buf_1
XFILLER_6_270 VDD_uq6 VSS_uq7 sg13g2_decap_8
XFILLER_25_358 VDD_uq6 VSS_uq7 sg13g2_decap_8
XFILLER_21_564 VDD_uq6 VSS_uq7 sg13g2_fill_2
XFILLER_21_575 VDD_uq6 VSS_uq7 sg13g2_fill_2
XFILLER_21_553 VDD_uq6 VSS_uq7 sg13g2_decap_8
XFILLER_4_229 VDD_uq6 VSS_uq7 sg13g2_decap_8
XFILLER_0_424 VDD_uq6 VSS_uq7 sg13g2_decap_8
XFILLER_20_78 VDD_uq6 VSS_uq7 sg13g2_decap_4
X_661_ _688_/B _705_/C _661_/X VDD_uq6 VSS_uq7 sg13g2_and2_1
XFILLER_29_21 VDD_uq6 VSS_uq7 sg13g2_decap_8
X_592_ VSS_uq7 VDD_uq6 _981_/Q _593_/C _594_/B _982_/Q sg13g2_a21oi_1
X_730_ _730_/Y _730_/A _730_/B VDD_uq6 VSS_uq7 sg13g2_xnor2_1
XFILLER_12_542 VDD_uq6 VSS_uq7 sg13g2_decap_8
XFILLER_16_325 VDD_uq6 VSS_uq7 sg13g2_decap_8
XFILLER_8_579 VDD_uq6 VSS_uq7 sg13g2_decap_8
X_928_ _494_/C VSS_uq7 VDD_uq6 _928_/D _928_/Q _931_/CLK sg13g2_dfrbpq_1
XFILLER_3_273 VDD_uq6 VSS_uq7 sg13g2_decap_8
X_859_ _917_/Q _879_/Q _865_/S _917_/D VDD_uq6 VSS_uq7 sg13g2_mux2_1
XFILLER_19_152 VDD_uq6 VSS_uq7 sg13g2_decap_4
XFILLER_19_185 VDD_uq6 VSS_uq7 sg13g2_decap_4
XFILLER_22_317 VDD_uq6 VSS_uq7 sg13g2_decap_8
XFILLER_25_144 VDD_uq6 VSS_uq7 sg13g2_decap_8
XFILLER_13_339 VDD_uq6 VSS_uq7 sg13g2_decap_8
XFILLER_15_56 VDD_uq6 VSS_uq7 sg13g2_decap_8
XFILLER_5_538 VDD_uq6 VSS_uq7 sg13g2_decap_8
XFILLER_0_265 VDD_uq6 VSS_uq7 sg13g2_decap_8
X_644_ _644_/Y _712_/B _668_/B VDD_uq6 VSS_uq7 sg13g2_nand2_1
X_713_ _713_/B _713_/C _713_/A _718_/B VDD_uq6 VSS_uq7 sg13g2_nand3_1
XFILLER_29_472 VDD_uq6 VSS_uq7 sg13g2_decap_8
XFILLER_29_483 VDD_uq6 VSS_uq7 sg13g2_fill_2
X_575_ VSS_uq7 VDD_uq6 _976_/Q _977_/Q _977_/D _574_/Y sg13g2_a21oi_1
XFILLER_16_133 VDD_uq6 VSS_uq7 sg13g2_decap_8
XFILLER_8_343 VDD_uq6 VSS_uq7 sg13g2_decap_8
XFILLER_16_188 VDD_uq6 VSS_uq7 sg13g2_decap_8
XFILLER_4_582 VDD_uq6 VSS_uq7 sg13g2_decap_8
XFILLER_23_637 VDD_uq6 VSS_uq7 sg13g2_fill_1
XFILLER_22_114 VDD_uq6 VSS_uq7 sg13g2_decap_8
XFILLER_10_309 VDD_uq6 VSS_uq7 sg13g2_decap_8
X_948__60 VDD_uq6 VSS_uq7 _948__60/L_HI sg13g2_tiehi
Xsg13g2_IOPadAnalog_sensor IOVDD IOVSS sensor_PAD sg13g2_IOPadAnalog_sensor/padres
+ VDD_uq6 VSS_uq7 sg13g2_IOPadAnalog
XFILLER_26_453 VDD_uq6 VSS_uq7 sg13g2_decap_8
XFILLER_26_88 VDD_uq6 VSS_uq7 sg13g2_decap_8
XFILLER_13_125 VDD_uq6 VSS_uq7 sg13g2_fill_2
XFILLER_5_302 VDD_uq6 VSS_uq7 sg13g2_decap_4
XFILLER_5_379 VDD_uq6 VSS_uq7 sg13g2_decap_8
X_627_ VSS_uq7 VDD_uq6 _781_/C _629_/B _627_/Y _934_/Q sg13g2_a21oi_1
X_558_ _558_/B _969_/Q _969_/D VDD_uq6 VSS_uq7 sg13g2_xor2_1
XFILLER_8_173 VDD_uq6 VSS_uq7 sg13g2_decap_8
X_489_ _899_/Q _807_/A _815_/B VDD_uq6 VSS_uq7 sg13g2_nor2b_1
XFILLER_11_607 VDD_uq6 VSS_uq7 sg13g2_fill_1
XFILLER_23_445 VDD_uq6 VSS_uq7 sg13g2_decap_8
XFILLER_10_139 VDD_uq6 VSS_uq7 sg13g2_decap_8
XFILLER_5_7 VDD_uq6 VSS_uq7 sg13g2_decap_8
XFILLER_12_46 VDD_uq6 VSS_uq7 sg13g2_decap_8
XFILLER_12_79 VDD_uq6 VSS_uq7 sg13g2_decap_8
XFILLER_18_206 VDD_uq6 VSS_uq7 sg13g2_decap_8
XFILLER_14_412 VDD_uq6 VSS_uq7 sg13g2_decap_8
XFILLER_6_644 VDD_uq6 VSS_uq7 sg13g2_decap_8
XFILLER_5_132 VDD_uq6 VSS_uq7 sg13g2_decap_8
XFILLER_20_415 VDD_uq6 VSS_uq7 sg13g2_decap_8
XFILLER_17_283 VDD_uq6 VSS_uq7 sg13g2_fill_2
XFILLER_28_559 VDD_uq6 VSS_uq7 sg13g2_fill_1
XFILLER_23_286 VDD_uq6 VSS_uq7 sg13g2_decap_8
XFILLER_23_89 VDD_uq6 VSS_uq7 sg13g2_decap_8
XFILLER_11_459 VDD_uq6 VSS_uq7 sg13g2_decap_8
X_961_ fanout24/X VSS_uq7 VDD_uq6 _961_/D _961_/Q _487_/A sg13g2_dfrbpq_1
XFILLER_2_124 VDD_uq6 VSS_uq7 sg13g2_decap_8
XFILLER_19_515 VDD_uq6 VSS_uq7 sg13g2_decap_8
X_892_ fanout37/X VSS_uq7 VDD_uq6 _892_/D _892_/Q _931_/CLK sg13g2_dfrbpq_1
XFILLER_0_49 VDD_uq6 VSS_uq7 sg13g2_decap_8
XFILLER_14_242 VDD_uq6 VSS_uq7 sg13g2_decap_8
XFILLER_6_452 VDD_uq6 VSS_uq7 sg13g2_decap_8
XFILLER_25_518 VDD_uq6 VSS_uq7 sg13g2_decap_8
XFILLER_18_592 VDD_uq6 VSS_uq7 sg13g2_decap_8
XFILLER_20_245 VDD_uq6 VSS_uq7 sg13g2_decap_8
XFILLER_0_628 VDD_uq6 VSS_uq7 sg13g2_decap_8
XFILLER_28_356 VDD_uq6 VSS_uq7 sg13g2_fill_2
XFILLER_24_595 VDD_uq6 VSS_uq7 sg13g2_fill_2
XFILLER_24_573 VDD_uq6 VSS_uq7 sg13g2_decap_4
XFILLER_11_212 VDD_uq6 VSS_uq7 sg13g2_decap_8
XFILLER_18_89 VDD_uq6 VSS_uq7 sg13g2_decap_8
XFILLER_3_455 VDD_uq6 VSS_uq7 sg13g2_decap_8
X_944_ fanout35/X VSS_uq7 VDD_uq6 _944_/D _945_/D _487_/A sg13g2_dfrbpq_1
X_875_ fanout35/X VSS_uq7 VDD_uq6 _875_/D _944_/D _941_/CLK sg13g2_dfrbpq_1
XFILLER_15_540 VDD_uq6 VSS_uq7 sg13g2_decap_8
Xsg13g2_IOPadAnalog_vdd1v5 IOVDD IOVSS VDD1v5 sg13g2_IOPadAnalog_vdd1v5/padres VDD_uq6
+ VSS_uq7 sg13g2_IOPadAnalog
XFILLER_27_0 VDD_uq6 VSS_uq7 sg13g2_decap_8
XFILLER_21_521 VDD_uq6 VSS_uq7 sg13g2_decap_8
XFILLER_25_337 VDD_uq6 VSS_uq7 sg13g2_fill_2
XFILLER_0_403 VDD_uq6 VSS_uq7 sg13g2_decap_8
XFILLER_20_57 VDD_uq6 VSS_uq7 sg13g2_decap_8
XFILLER_29_654 VDD_uq6 VSS_uq7 sg13g2_decap_8
XFILLER_29_665 VDD_uq6 VSS_uq7 sg13g2_fill_1
X_660_ _662_/S _699_/A _715_/A _710_/A _792_/A _755_/B _705_/C VDD_uq6 VSS_uq7 sg13g2_mux4_1
X_591_ VDD_uq6 _981_/D _591_/A VSS_uq7 sg13g2_inv_1
XFILLER_16_304 VDD_uq6 VSS_uq7 sg13g2_decap_8
XFILLER_12_598 VDD_uq6 VSS_uq7 sg13g2_decap_8
XFILLER_12_510 VDD_uq6 VSS_uq7 sg13g2_decap_8
XFILLER_8_525 VDD_uq6 VSS_uq7 sg13g2_decap_8
XFILLER_24_370 VDD_uq6 VSS_uq7 sg13g2_fill_1
XFILLER_8_558 VDD_uq6 VSS_uq7 sg13g2_decap_8
XFILLER_3_252 VDD_uq6 VSS_uq7 sg13g2_decap_8
XFILLER_6_48 VDD_uq6 VSS_uq7 sg13g2_decap_8
X_927_ fanout28/X VSS_uq7 VDD_uq6 _927_/D _927_/Q _939_/CLK sg13g2_dfrbpq_1
X_858_ _916_/Q _878_/Q _865_/S _916_/D VDD_uq6 VSS_uq7 sg13g2_mux2_1
X_789_ VDD_uq6 _889_/D _789_/A VSS_uq7 sg13g2_inv_1
XFILLER_15_381 VDD_uq6 VSS_uq7 sg13g2_decap_4
XFILLER_25_123 VDD_uq6 VSS_uq7 sg13g2_decap_8
XFILLER_25_134 VDD_uq6 VSS_uq7 sg13g2_fill_1
XFILLER_15_35 VDD_uq6 VSS_uq7 sg13g2_decap_8
XFILLER_5_517 VDD_uq6 VSS_uq7 sg13g2_decap_8
XFILLER_21_395 VDD_uq6 VSS_uq7 sg13g2_decap_8
X_712_ _713_/C _712_/B _711_/B VDD_uq6 VSS_uq7 sg13g2_nand2b_1
XFILLER_0_244 VDD_uq6 VSS_uq7 sg13g2_decap_8
XFILLER_17_602 VDD_uq6 VSS_uq7 sg13g2_decap_8
XFILLER_17_613 VDD_uq6 VSS_uq7 sg13g2_fill_1
X_643_ _688_/B _643_/B _705_/B VDD_uq6 VSS_uq7 sg13g2_nor2_1
XFILLER_29_451 VDD_uq6 VSS_uq7 sg13g2_decap_8
X_574_ _603_/A VDD_uq6 _574_/Y VSS_uq7 _976_/Q _977_/Q sg13g2_o21ai_1
XFILLER_16_112 VDD_uq6 VSS_uq7 sg13g2_decap_8
XFILLER_12_384 VDD_uq6 VSS_uq7 sg13g2_decap_8
XFILLER_8_399 VDD_uq6 VSS_uq7 sg13g2_decap_8
XFILLER_7_91 VDD_uq6 VSS_uq7 sg13g2_decap_8
XFILLER_14_605 VDD_uq6 VSS_uq7 sg13g2_decap_8
XFILLER_26_432 VDD_uq6 VSS_uq7 sg13g2_decap_8
XFILLER_26_67 VDD_uq6 VSS_uq7 sg13g2_decap_8
XFILLER_13_104 VDD_uq6 VSS_uq7 sg13g2_decap_8
XFILLER_9_119 VDD_uq6 VSS_uq7 sg13g2_decap_8
XFILLER_5_358 VDD_uq6 VSS_uq7 sg13g2_decap_8
XFILLER_1_597 VDD_uq6 VSS_uq7 sg13g2_fill_2
XFILLER_1_564 VDD_uq6 VSS_uq7 sg13g2_fill_1
X_626_ _781_/C _629_/B _628_/A VDD_uq6 VSS_uq7 sg13g2_nor2_1
X_557_ _969_/Q _558_/B _560_/B VDD_uq6 VSS_uq7 sg13g2_and2_1
X_488_ _807_/A _521_/B _940_/D VDD_uq6 VSS_uq7 sg13g2_nor2_1
XFILLER_17_443 VDD_uq6 VSS_uq7 sg13g2_decap_8
XFILLER_17_487 VDD_uq6 VSS_uq7 sg13g2_decap_8
XFILLER_8_130 VDD_uq6 VSS_uq7 sg13g2_decap_8
XFILLER_8_196 VDD_uq6 VSS_uq7 sg13g2_decap_4
XFILLER_23_468 VDD_uq6 VSS_uq7 sg13g2_decap_8
XFILLER_23_424 VDD_uq6 VSS_uq7 sg13g2_decap_8
XFILLER_26_284 VDD_uq6 VSS_uq7 sg13g2_decap_4
XFILLER_14_468 VDD_uq6 VSS_uq7 sg13g2_decap_8
XFILLER_10_652 VDD_uq6 VSS_uq7 sg13g2_decap_8
XFILLER_10_641 VDD_uq6 VSS_uq7 sg13g2_decap_8
XFILLER_5_111 VDD_uq6 VSS_uq7 sg13g2_decap_8
X_609_ _610_/A _608_/X _605_/X _606_/Y _761_/A VDD_uq6 VSS_uq7 sg13g2_a22oi_1
XFILLER_23_265 VDD_uq6 VSS_uq7 sg13g2_decap_8
XFILLER_11_438 VDD_uq6 VSS_uq7 sg13g2_decap_8
XFILLER_3_626 VDD_uq6 VSS_uq7 sg13g2_decap_8
X_960_ fanout24/X VSS_uq7 VDD_uq6 _960_/D _960_/Q _487_/A sg13g2_dfrbpq_1
XFILLER_2_103 VDD_uq6 VSS_uq7 sg13g2_decap_8
X_891_ fanout40/X VSS_uq7 VDD_uq6 _891_/D _891_/Q _891_/CLK sg13g2_dfrbpq_1
XFILLER_27_571 VDD_uq6 VSS_uq7 sg13g2_fill_2
XFILLER_27_560 VDD_uq6 VSS_uq7 sg13g2_decap_8
XFILLER_0_28 VDD_uq6 VSS_uq7 sg13g2_decap_8
XFILLER_13_90 VDD_uq6 VSS_uq7 sg13g2_decap_8
XFILLER_18_571 VDD_uq6 VSS_uq7 sg13g2_decap_8
XFILLER_20_224 VDD_uq6 VSS_uq7 sg13g2_decap_8
XFILLER_0_607 VDD_uq6 VSS_uq7 sg13g2_decap_8
XFILLER_28_335 VDD_uq6 VSS_uq7 sg13g2_decap_8
X_874_ fanout38/X VSS_uq7 VDD_uq6 _874_/D _874_/Q _889_/CLK sg13g2_dfrbpq_1
X_943_ fanout28/X VSS_uq7 VDD_uq6 _943_/D _943_/Q _487_/A sg13g2_dfrbpq_1
XFILLER_15_596 VDD_uq6 VSS_uq7 sg13g2_decap_8
XFILLER_25_316 VDD_uq6 VSS_uq7 sg13g2_decap_8
XFILLER_20_36 VDD_uq6 VSS_uq7 sg13g2_decap_8
XFILLER_29_56 VDD_uq6 VSS_uq7 sg13g2_decap_8
XFILLER_0_459 VDD_uq6 VSS_uq7 sg13g2_decap_8
XFILLER_29_633 VDD_uq6 VSS_uq7 sg13g2_decap_8
XFILLER_29_89 VDD_uq6 VSS_uq7 sg13g2_decap_8
XFILLER_28_187 VDD_uq6 VSS_uq7 sg13g2_decap_4
X_590_ _589_/Y VDD_uq6 _591_/A VSS_uq7 _981_/Q _593_/C sg13g2_o21ai_1
XFILLER_12_577 VDD_uq6 VSS_uq7 sg13g2_decap_8
XFILLER_8_504 VDD_uq6 VSS_uq7 sg13g2_decap_8
XFILLER_3_231 VDD_uq6 VSS_uq7 sg13g2_decap_8
X_788_ _787_/Y VDD_uq6 _789_/A VSS_uq7 _935_/Q _666_/S sg13g2_o21ai_1
X_926_ fanout29/X VSS_uq7 VDD_uq6 _926_/D _926_/Q _939_/CLK sg13g2_dfrbpq_1
X_857_ _904_/Q _857_/B _865_/S VDD_uq6 VSS_uq7 sg13g2_nor2_1
XFILLER_13_7 VDD_uq6 VSS_uq7 sg13g2_decap_8
XFILLER_15_360 VDD_uq6 VSS_uq7 sg13g2_decap_8
XFILLER_15_393 VDD_uq6 VSS_uq7 sg13g2_decap_8
XFILLER_19_176 VDD_uq6 VSS_uq7 sg13g2_decap_4
XFILLER_7_570 VDD_uq6 VSS_uq7 sg13g2_decap_4
XFILLER_25_102 VDD_uq6 VSS_uq7 sg13g2_decap_8
XFILLER_15_14 VDD_uq6 VSS_uq7 sg13g2_decap_8
XFILLER_25_179 VDD_uq6 VSS_uq7 sg13g2_decap_8
XFILLER_21_374 VDD_uq6 VSS_uq7 sg13g2_decap_8
XFILLER_0_212 VDD_uq6 VSS_uq7 sg13g2_fill_2
XFILLER_0_201 VDD_uq6 VSS_uq7 sg13g2_decap_8
X_642_ _688_/B _656_/S _647_/B VDD_uq6 VSS_uq7 sg13g2_nor2_1
X_711_ _890_/Q _711_/B _711_/Y VDD_uq6 VSS_uq7 sg13g2_nor2_1
XFILLER_29_430 VDD_uq6 VSS_uq7 sg13g2_decap_8
XFILLER_0_223 VDD_uq6 VSS_uq7 sg13g2_decap_8
XFILLER_17_647 VDD_uq6 VSS_uq7 sg13g2_decap_8
X_573_ _976_/Q _597_/A _976_/D VDD_uq6 VSS_uq7 sg13g2_nor2_1
XFILLER_16_168 VDD_uq6 VSS_uq7 sg13g2_fill_1
XFILLER_8_301 VDD_uq6 VSS_uq7 sg13g2_fill_1
XFILLER_8_378 VDD_uq6 VSS_uq7 sg13g2_decap_8
XFILLER_12_363 VDD_uq6 VSS_uq7 sg13g2_decap_8
X_909_ fanout22/X VSS_uq7 VDD_uq6 _909_/D _909_/Q _912_/CLK sg13g2_dfrbpq_1
XFILLER_23_628 VDD_uq6 VSS_uq7 sg13g2_decap_8
XFILLER_22_149 VDD_uq6 VSS_uq7 sg13g2_decap_8
XFILLER_7_70 VDD_uq6 VSS_uq7 sg13g2_decap_8
XFILLER_26_488 VDD_uq6 VSS_uq7 sg13g2_decap_8
XFILLER_26_411 VDD_uq6 VSS_uq7 sg13g2_decap_8
XFILLER_26_46 VDD_uq6 VSS_uq7 sg13g2_decap_8
XFILLER_21_182 VDD_uq6 VSS_uq7 sg13g2_decap_4
XFILLER_21_193 VDD_uq6 VSS_uq7 sg13g2_decap_8
XFILLER_5_315 VDD_uq6 VSS_uq7 sg13g2_fill_2
XFILLER_1_587 VDD_uq6 VSS_uq7 sg13g2_fill_2
XFILLER_1_521 VDD_uq6 VSS_uq7 sg13g2_decap_8
XFILLER_29_293 VDD_uq6 VSS_uq7 sg13g2_decap_8
XFILLER_29_271 VDD_uq6 VSS_uq7 sg13g2_decap_4
X_625_ _887_/Q _625_/C _768_/A _629_/B VDD_uq6 VSS_uq7 _625_/D sg13g2_nand4_1
XFILLER_17_422 VDD_uq6 VSS_uq7 sg13g2_decap_8
X_487_ _487_/A _948_/Q _487_/X VDD_uq6 VSS_uq7 sg13g2_and2_1
X_556_ _819_/B _556_/B _558_/B _968_/D VDD_uq6 VSS_uq7 sg13g2_nor3_1
XFILLER_17_466 VDD_uq6 VSS_uq7 sg13g2_decap_8
XFILLER_9_654 VDD_uq6 VSS_uq7 sg13g2_decap_8
XFILLER_9_665 VDD_uq6 VSS_uq7 sg13g2_fill_1
XFILLER_23_403 VDD_uq6 VSS_uq7 sg13g2_decap_8
XFILLER_2_329 VDD_uq6 VSS_uq7 sg13g2_decap_8
XFILLER_10_620 VDD_uq6 VSS_uq7 sg13g2_decap_8
XFILLER_26_263 VDD_uq6 VSS_uq7 sg13g2_decap_8
XFILLER_14_447 VDD_uq6 VSS_uq7 sg13g2_decap_8
XFILLER_22_491 VDD_uq6 VSS_uq7 sg13g2_decap_8
XFILLER_5_189 VDD_uq6 VSS_uq7 sg13g2_decap_8
XFILLER_17_241 VDD_uq6 VSS_uq7 sg13g2_decap_8
XFILLER_17_296 VDD_uq6 VSS_uq7 sg13g2_decap_8
X_608_ _866_/Q _761_/A _608_/X VDD_uq6 VSS_uq7 sg13g2_xor2_1
X_539_ _541_/D _960_/Q _961_/Q _540_/B VDD_uq6 VSS_uq7 sg13g2_a21o_1
XFILLER_9_440 VDD_uq6 VSS_uq7 sg13g2_decap_4
XFILLER_9_484 VDD_uq6 VSS_uq7 sg13g2_decap_4
XFILLER_4_82 VDD_uq6 VSS_uq7 sg13g2_decap_8
XFILLER_23_244 VDD_uq6 VSS_uq7 sg13g2_decap_8
XFILLER_11_417 VDD_uq6 VSS_uq7 sg13g2_decap_8
XFILLER_3_605 VDD_uq6 VSS_uq7 sg13g2_decap_8
XFILLER_23_69 VDD_uq6 VSS_uq7 sg13g2_decap_8
X_890_ fanout40/X VSS_uq7 VDD_uq6 _890_/D _890_/Q _891_/CLK sg13g2_dfrbpq_1
XFILLER_2_159 VDD_uq6 VSS_uq7 sg13g2_decap_8
XFILLER_14_233 VDD_uq6 VSS_uq7 sg13g2_decap_4
XFILLER_14_277 VDD_uq6 VSS_uq7 sg13g2_decap_8
XFILLER_6_487 VDD_uq6 VSS_uq7 sg13g2_decap_8
XFILLER_1_170 VDD_uq6 VSS_uq7 sg13g2_fill_1
XFILLER_18_550 VDD_uq6 VSS_uq7 sg13g2_decap_8
XFILLER_20_203 VDD_uq6 VSS_uq7 sg13g2_decap_8
XFILLER_9_281 VDD_uq6 VSS_uq7 sg13g2_decap_8
XFILLER_24_520 VDD_uq6 VSS_uq7 sg13g2_decap_4
XFILLER_16_509 VDD_uq6 VSS_uq7 sg13g2_fill_2
XFILLER_28_358 VDD_uq6 VSS_uq7 sg13g2_fill_1
XFILLER_18_14 VDD_uq6 VSS_uq7 sg13g2_decap_8
XFILLER_7_207 VDD_uq6 VSS_uq7 sg13g2_decap_8
XFILLER_3_435 VDD_uq6 VSS_uq7 sg13g2_decap_8
X_873_ fanout38/X VSS_uq7 VDD_uq6 _873_/D _873_/Q _889_/CLK sg13g2_dfrbpq_1
X_942_ fanout28/X VSS_uq7 VDD_uq6 _943_/Q _942_/Q _487_/A sg13g2_dfrbpq_1
XFILLER_19_314 VDD_uq6 VSS_uq7 sg13g2_decap_8
XFILLER_15_575 VDD_uq6 VSS_uq7 sg13g2_decap_8
XFILLER_27_391 VDD_uq6 VSS_uq7 sg13g2_fill_1
XFILLER_27_380 VDD_uq6 VSS_uq7 sg13g2_decap_8
XFILLER_10_280 VDD_uq6 VSS_uq7 sg13g2_decap_8
XFILLER_2_490 VDD_uq6 VSS_uq7 sg13g2_fill_2
XFILLER_6_284 VDD_uq6 VSS_uq7 sg13g2_decap_8
XFILLER_25_339 VDD_uq6 VSS_uq7 sg13g2_fill_1
XFILLER_21_589 VDD_uq6 VSS_uq7 sg13g2_decap_8
XFILLER_21_501 VDD_uq6 VSS_uq7 sg13g2_fill_2
XFILLER_29_612 VDD_uq6 VSS_uq7 sg13g2_decap_8
XFILLER_29_35 VDD_uq6 VSS_uq7 sg13g2_decap_8
XFILLER_28_100 VDD_uq6 VSS_uq7 sg13g2_fill_2
XFILLER_0_438 VDD_uq6 VSS_uq7 sg13g2_decap_8
XFILLER_24_361 VDD_uq6 VSS_uq7 sg13g2_decap_8
XFILLER_16_339 VDD_uq6 VSS_uq7 sg13g2_decap_8
XFILLER_12_556 VDD_uq6 VSS_uq7 sg13g2_decap_8
XFILLER_3_287 VDD_uq6 VSS_uq7 sg13g2_fill_2
XFILLER_3_210 VDD_uq6 VSS_uq7 sg13g2_decap_8
X_925_ fanout29/X VSS_uq7 VDD_uq6 _925_/D _925_/Q _939_/CLK sg13g2_dfrbpq_1
X_787_ _786_/Y VDD_uq6 _787_/Y VSS_uq7 _763_/A _785_/Y sg13g2_o21ai_1
X_856_ _856_/A _856_/B _915_/D VDD_uq6 VSS_uq7 sg13g2_nor2_1