*SPEF "ieee 1481-1999"
*DESIGN "soc_system_top"
*DATE "20:00:31 Saturday March 28, 2026"
*VENDOR "The OpenROAD Project"
*PROGRAM "OpenROAD"
*VERSION "dfc4f595dfb2e1c346492ff1f0274abb28725acf"
*DESIGN_FLOW "NAME_SCOPE LOCAL" "PIN_CAP NONE"
*DIVIDER /
*DELIMITER :
*BUS_DELIMITER []
*T_UNIT 1 NS
*C_UNIT 1 PF
*R_UNIT 1 OHM
*L_UNIT 1 HENRY

*NAME_MAP
*4 VDD1v5
*6 adc_done_PAD
*7 clk_PAD
*8 reset_n_PAD
*9 sc_enable_PAD
*10 sc_vout_PAD
*11 sc_vref_PAD
*12 sensor_PAD
*13 state_out_0_PAD
*14 state_out_1_PAD
*15 state_out_2_PAD
*16 trigger_PAD
*17 tx_PAD
*18 vbg_PAD
*19 vramp_PAD
*20 _000_
*21 _001_
*22 _002_
*23 _003_
*24 _004_
*25 _005_
*26 _006_
*27 _007_
*28 _008_
*29 _009_
*30 _010_
*31 _011_
*32 _012_
*33 _013_
*34 _014_
*35 _015_
*36 _016_
*37 _017_
*38 _018_
*39 _019_
*40 _020_
*41 _021_
*42 _022_
*43 _023_
*44 _024_
*45 _025_
*46 _026_
*47 _027_
*48 _028_
*49 _029_
*50 _030_
*51 _031_
*52 _032_
*53 _033_
*54 _034_
*55 _035_
*56 _036_
*57 _037_
*58 _038_
*59 _039_
*60 _040_
*61 _041_
*62 _042_
*63 _043_
*64 _044_
*65 _045_
*66 _046_
*67 _047_
*68 _048_
*69 _050_
*70 _051_
*71 _052_
*72 _053_
*73 _054_
*74 _055_
*75 _056_
*76 _057_
*77 _058_
*78 _059_
*79 _060_
*80 _061_
*81 _062_
*82 _063_
*83 _064_
*84 _065_
*85 _066_
*86 _067_
*87 _068_
*88 _069_
*89 _070_
*90 _071_
*91 _072_
*92 _073_
*93 _074_
*94 _075_
*95 _076_
*96 _077_
*97 _078_
*98 _079_
*99 _080_
*100 _081_
*101 _082_
*102 _083_
*103 _084_
*104 _085_
*105 _086_
*106 _087_
*107 _088_
*108 _089_
*109 _090_
*110 _091_
*111 _092_
*112 _093_
*113 _094_
*114 _095_
*115 _096_
*116 _097_
*117 _098_
*118 _099_
*119 _100_
*120 _101_
*121 _102_
*122 _103_
*123 _104_
*124 _105_
*125 _106_
*126 _107_
*127 _108_
*128 _109_
*129 _110_
*130 _111_
*131 _112_
*132 _113_
*133 _114_
*134 _115_
*135 _116_
*136 _117_
*137 _118_
*138 _119_
*139 _120_
*140 _121_
*141 _122_
*142 _123_
*143 _124_
*144 _125_
*145 _126_
*146 _127_
*147 _128_
*148 _129_
*149 _130_
*150 _131_
*151 _132_
*152 _133_
*153 _134_
*154 _135_
*155 _136_
*156 _137_
*157 _138_
*158 _139_
*159 _140_
*160 _141_
*161 _142_
*162 _143_
*163 _144_
*164 _145_
*165 _146_
*166 _147_
*167 _148_
*168 _149_
*169 _150_
*170 _151_
*171 _152_
*172 _153_
*173 _154_
*174 _155_
*175 _156_
*176 _157_
*177 _158_
*178 _159_
*179 _160_
*180 _161_
*181 _162_
*182 _163_
*183 _164_
*184 _165_
*185 _166_
*186 _167_
*187 _168_
*188 _169_
*189 _170_
*190 _171_
*191 _172_
*192 _173_
*193 _174_
*194 _175_
*195 _176_
*196 _177_
*197 _178_
*198 _179_
*199 _180_
*200 _181_
*201 _182_
*202 _183_
*203 _184_
*204 _185_
*205 _186_
*206 _187_
*207 _188_
*208 _189_
*209 _190_
*210 _191_
*211 _192_
*212 _193_
*213 _194_
*214 _195_
*215 _196_
*216 _197_
*217 _198_
*218 _199_
*219 _200_
*220 _201_
*221 _202_
*222 _203_
*223 _204_
*224 _205_
*225 _206_
*226 _207_
*227 _208_
*228 _209_
*229 _210_
*230 _211_
*231 _212_
*232 _213_
*233 _214_
*234 _215_
*235 _216_
*236 _217_
*237 _218_
*238 _219_
*239 _220_
*240 _221_
*241 _222_
*242 _223_
*243 _224_
*244 _225_
*245 _226_
*246 _227_
*247 _228_
*248 _229_
*249 _230_
*250 _231_
*251 _232_
*252 _233_
*253 _234_
*254 _235_
*255 _236_
*256 _237_
*257 _238_
*258 _239_
*259 _240_
*260 _241_
*261 _242_
*262 _243_
*263 _244_
*264 _245_
*265 _246_
*266 _247_
*267 _248_
*268 _249_
*269 _250_
*270 _251_
*271 _252_
*272 _253_
*273 _254_
*274 _255_
*275 _256_
*276 _257_
*277 _258_
*278 _259_
*279 _260_
*280 _261_
*281 _262_
*282 _263_
*283 _264_
*284 _265_
*285 _266_
*286 _267_
*287 _268_
*288 _269_
*289 _270_
*290 _271_
*291 _272_
*292 _273_
*293 _274_
*294 _275_
*295 _276_
*296 _277_
*297 _278_
*298 _279_
*299 _280_
*300 _281_
*301 _282_
*302 _283_
*303 _284_
*304 _285_
*305 _286_
*306 _287_
*307 _288_
*308 _289_
*309 _290_
*310 _291_
*311 _292_
*312 _293_
*313 _294_
*314 _295_
*315 _296_
*316 _297_
*317 _298_
*318 _299_
*319 _300_
*320 _301_
*321 _302_
*322 _303_
*323 _304_
*324 _305_
*325 _306_
*326 _307_
*327 _308_
*328 _309_
*329 _310_
*330 _311_
*331 _312_
*332 _313_
*333 _314_
*334 _315_
*335 _316_
*336 _317_
*337 _318_
*338 _319_
*339 _320_
*340 _321_
*341 _322_
*342 _323_
*343 _324_
*344 _325_
*345 _326_
*346 _327_
*347 _328_
*348 _329_
*349 _330_
*350 _331_
*351 _332_
*352 _333_
*353 _334_
*354 _335_
*355 _336_
*356 _337_
*357 _338_
*358 _339_
*359 _340_
*360 _341_
*361 _342_
*362 _343_
*363 _344_
*364 _345_
*365 _346_
*366 _347_
*367 _348_
*368 _349_
*369 _350_
*370 _351_
*371 _352_
*372 _353_
*373 _354_
*374 _355_
*375 _356_
*376 _357_
*377 _358_
*378 _359_
*379 _360_
*380 _361_
*381 _362_
*382 _363_
*383 _364_
*384 _365_
*385 _366_
*386 _367_
*387 _368_
*388 _369_
*389 _370_
*390 _371_
*391 _372_
*392 _373_
*393 _374_
*394 _375_
*395 _376_
*396 _377_
*397 _378_
*398 _379_
*399 _380_
*400 _381_
*401 _382_
*402 _383_
*403 _384_
*404 _385_
*405 _386_
*406 _387_
*407 _388_
*408 _389_
*409 _390_
*410 _391_
*411 _392_
*412 _393_
*413 _394_
*414 _395_
*415 _396_
*416 _397_
*417 _398_
*418 _399_
*419 _400_
*420 _401_
*421 _402_
*422 _403_
*423 _404_
*424 _405_
*425 _406_
*426 _407_
*427 _408_
*428 _409_
*429 _410_
*430 _411_
*431 _412_
*432 _413_
*433 _414_
*434 _415_
*435 _416_
*436 _417_
*437 _418_
*438 _419_
*439 _420_
*440 _421_
*441 _422_
*442 _423_
*443 _424_
*444 _425_
*445 adc_comp_out_PIN
*446 adc_done
*447 adc_sel_cal_PIN
*448 adc_sel_meas_PIN
*449 analog_reset_n_PIN
*450 cal_comp_out_PIN
*451 clk
*452 net
*453 net1
*454 net10
*455 net11
*456 net12
*457 net13
*458 net14
*459 net15
*460 net16
*461 net17
*462 net18
*463 net19
*464 net2
*465 net20
*466 net21
*467 net22
*468 net23
*469 net24
*470 net25
*471 net26
*472 net27
*473 net28
*474 net29
*475 net3
*476 net30
*477 net31
*478 net32
*479 net33
*480 net34
*481 net35
*482 net36
*483 net37
*484 net38
*485 net39
*486 net4
*487 net40
*488 net41
*489 net42
*490 net43
*491 net44
*492 net45
*493 net46
*494 net47
*495 net48
*496 net49
*497 net5
*498 net50
*499 net51
*500 net52
*501 net53
*502 net54
*503 net55
*504 net56
*505 net57
*506 net58
*507 net59
*508 net6
*509 net60
*510 net7
*511 net8
*512 net9
*513 ramp_en_PIN
*514 ramp_reset_PIN
*515 reset_n
*516 reset_n_pad_sg
*517 sc_cal_ref_select\[0\]
*518 sc_cal_ref_select\[1\]
*519 sc_cal_ref_select\[2\]
*520 sc_cal_ref_select\[3\]
*521 sc_enable_pad_sg
*522 sc_select_cal_PIN
*523 sc_select_sen_PIN
*524 singnal_conditionning_en_PIN
*525 state_out\[0\]
*526 state_out\[1\]
*527 state_out\[2\]
*528 trigger
*529 tx
*530 uut_full_system_top\.adc_clk_en
*531 uut_full_system_top\.adc_result\[0\]
*532 uut_full_system_top\.adc_result\[1\]
*533 uut_full_system_top\.adc_result\[2\]
*534 uut_full_system_top\.adc_result\[3\]
*535 uut_full_system_top\.adc_result\[4\]
*536 uut_full_system_top\.adc_result\[5\]
*537 uut_full_system_top\.adc_result\[6\]
*538 uut_full_system_top\.adc_result\[7\]
*539 uut_full_system_top\.adc_start
*540 uut_full_system_top\.cal_active
*541 uut_full_system_top\.clk_gated_adc
*542 uut_full_system_top\.clk_gated_cal
*543 uut_full_system_top\.clk_gated_uart
*544 uut_full_system_top\.trigger_armed
*545 uut_full_system_top\.tx_start
*546 uut_full_system_top\.uart_busy
*547 uut_full_system_top\.uart_done
*548 uut_full_system_top\.uart_en
*549 uut_full_system_top\.uut_adc_logic\.adc_start_sync_1
*550 uut_full_system_top\.uut_adc_logic\.adc_start_sync_2
*551 uut_full_system_top\.uut_adc_logic\.counter\[0\]
*552 uut_full_system_top\.uut_adc_logic\.counter\[1\]
*553 uut_full_system_top\.uut_adc_logic\.counter\[2\]
*554 uut_full_system_top\.uut_adc_logic\.counter\[3\]
*555 uut_full_system_top\.uut_adc_logic\.counter\[4\]
*556 uut_full_system_top\.uut_adc_logic\.counter\[5\]
*557 uut_full_system_top\.uut_adc_logic\.counter\[6\]
*558 uut_full_system_top\.uut_adc_logic\.counter\[7\]
*559 uut_full_system_top\.uut_adc_logic\.counter\[8\]
*560 uut_full_system_top\.uut_adc_logic\.counter_enable
*561 uut_full_system_top\.uut_adc_logic\.is_neg
*562 uut_full_system_top\.uut_adc_logic\.shift_n\[0\]
*563 uut_full_system_top\.uut_adc_logic\.shift_n\[1\]
*564 uut_full_system_top\.uut_adc_logic\.shift_n\[2\]
*565 uut_full_system_top\.uut_adc_logic\.state\[1\]
*566 uut_full_system_top\.uut_adc_logic\.state\[2\]
*567 uut_full_system_top\.uut_adc_logic\.state\[3\]
*568 uut_full_system_top\.uut_adc_logic\.state\[4\]
*569 uut_full_system_top\.uut_cal_fsm\.amplifier_enable
*570 uut_full_system_top\.uut_cal_fsm\.state\[0\]
*571 uut_full_system_top\.uut_cal_fsm\.state\[1\]
*572 uut_full_system_top\.uut_cal_fsm\.state\[2\]
*573 uut_full_system_top\.uut_cal_fsm\.state\[3\]
*574 uut_full_system_top\.uut_clock_gating\.adc_clk_gate\.enable_latched
*575 uut_full_system_top\.uut_clock_gating\.cal_clk_gate\.enable_latched
*576 uut_full_system_top\.uut_clock_gating\.uart_clk_gate\.enable_latched
*577 uut_full_system_top\.uut_fsm\.adc_done_sync
*578 uut_full_system_top\.uut_fsm\.adc_s0
*579 uut_full_system_top\.uut_fsm\.uart_done_sync
*580 uut_full_system_top\.uut_fsm\.uart_s0
*581 uut_full_system_top\.uut_timer\.clear_flag
*582 uut_full_system_top\.uut_timer\.clear_flag_sync
*583 uut_full_system_top\.uut_timer\.clk_1hz
*584 uut_full_system_top\.uut_timer\.clr_d1
*585 uut_full_system_top\.uut_timer\.done_d1
*586 uut_full_system_top\.uut_timer\.done_d2
*587 uut_full_system_top\.uut_timer\.timer_done_level
*588 uut_full_system_top\.uut_timer\.trig_d1
*589 uut_full_system_top\.uut_timer\.trig_d2
*590 uut_full_system_top\.uut_timer\.trigger_flag
*591 uut_full_system_top\.uut_timer\.u_counter\.counter\[0\]
*592 uut_full_system_top\.uut_timer\.u_counter\.counter\[1\]
*593 uut_full_system_top\.uut_timer\.u_counter\.counter\[2\]
*594 uut_full_system_top\.uut_timer\.u_counter\.counter\[3\]
*595 uut_full_system_top\.uut_timer\.u_counter\.counter\[4\]
*596 uut_full_system_top\.uut_timer\.u_counter\.counter\[5\]
*597 uut_full_system_top\.uut_timer\.u_counter\.counter\[6\]
*598 uut_full_system_top\.uut_timer\.u_counter\.counter\[7\]
*599 uut_full_system_top\.uut_timer\.u_counter\.counter\[8\]
*600 uut_full_system_top\.uut_timer\.u_counter\.counter\[9\]
*601 uut_full_system_top\.uut_timer\.u_counter\.trig_d1
*602 uut_full_system_top\.uut_timer\.u_counter\.trig_d2
*603 uut_full_system_top\.uut_timer\.u_prescaler\.counter\[0\]
*604 uut_full_system_top\.uut_timer\.u_prescaler\.counter\[10\]
*605 uut_full_system_top\.uut_timer\.u_prescaler\.counter\[11\]
*606 uut_full_system_top\.uut_timer\.u_prescaler\.counter\[12\]
*607 uut_full_system_top\.uut_timer\.u_prescaler\.counter\[13\]
*608 uut_full_system_top\.uut_timer\.u_prescaler\.counter\[14\]
*609 uut_full_system_top\.uut_timer\.u_prescaler\.counter\[15\]
*610 uut_full_system_top\.uut_timer\.u_prescaler\.counter\[16\]
*611 uut_full_system_top\.uut_timer\.u_prescaler\.counter\[17\]
*612 uut_full_system_top\.uut_timer\.u_prescaler\.counter\[18\]
*613 uut_full_system_top\.uut_timer\.u_prescaler\.counter\[1\]
*614 uut_full_system_top\.uut_timer\.u_prescaler\.counter\[2\]
*615 uut_full_system_top\.uut_timer\.u_prescaler\.counter\[3\]
*616 uut_full_system_top\.uut_timer\.u_prescaler\.counter\[4\]
*617 uut_full_system_top\.uut_timer\.u_prescaler\.counter\[5\]
*618 uut_full_system_top\.uut_timer\.u_prescaler\.counter\[6\]
*619 uut_full_system_top\.uut_timer\.u_prescaler\.counter\[7\]
*620 uut_full_system_top\.uut_timer\.u_prescaler\.counter\[8\]
*621 uut_full_system_top\.uut_timer\.u_prescaler\.counter\[9\]
*622 uut_full_system_top\.uut_uart\.baud_counter\[0\]
*623 uut_full_system_top\.uut_uart\.baud_counter\[1\]
*624 uut_full_system_top\.uut_uart\.baud_counter\[2\]
*625 uut_full_system_top\.uut_uart\.baud_counter\[3\]
*626 uut_full_system_top\.uut_uart\.baud_counter\[4\]
*627 uut_full_system_top\.uut_uart\.baud_counter\[5\]
*628 uut_full_system_top\.uut_uart\.baud_counter\[6\]
*629 uut_full_system_top\.uut_uart\.bit_index\[0\]
*630 uut_full_system_top\.uut_uart\.bit_index\[1\]
*631 uut_full_system_top\.uut_uart\.bit_index\[2\]
*632 uut_full_system_top\.uut_uart\.data_reg\[0\]
*633 uut_full_system_top\.uut_uart\.data_reg\[1\]
*634 uut_full_system_top\.uut_uart\.data_reg\[2\]
*635 uut_full_system_top\.uut_uart\.data_reg\[3\]
*636 uut_full_system_top\.uut_uart\.data_reg\[4\]
*637 uut_full_system_top\.uut_uart\.data_reg\[5\]
*638 uut_full_system_top\.uut_uart\.data_reg\[6\]
*639 uut_full_system_top\.uut_uart\.data_reg\[7\]
*640 uut_full_system_top\.uut_uart\.state\[1\]
*641 uut_full_system_top\.uut_uart\.state\[2\]
*642 uut_full_system_top\.uut_uart\.state\[3\]
*643 uut_full_system_top\.uut_uart\.tx_start_sync_1
*644 uut_full_system_top\.uut_uart\.tx_start_sync_2
*645 FILLER_0_0
*646 FILLER_0_105
*647 FILLER_0_112
*648 FILLER_0_119
*649 FILLER_0_126
*650 FILLER_0_133
*651 FILLER_0_14
*652 FILLER_0_140
*653 FILLER_0_147
*654 FILLER_0_154
*655 FILLER_0_161
*656 FILLER_0_168
*657 FILLER_0_175
*658 FILLER_0_180
*659 FILLER_0_187
*660 FILLER_0_194
*661 FILLER_0_201
*662 FILLER_0_208
*663 FILLER_0_21
*664 FILLER_0_212
*665 FILLER_0_223
*666 FILLER_0_230
*667 FILLER_0_237
*668 FILLER_0_244
*669 FILLER_0_251
*670 FILLER_0_258
*671 FILLER_0_265
*672 FILLER_0_272
*673 FILLER_0_279
*674 FILLER_0_28
*675 FILLER_0_286
*676 FILLER_0_293
*677 FILLER_0_300
*678 FILLER_0_307
*679 FILLER_0_314
*680 FILLER_0_321
*681 FILLER_0_328
*682 FILLER_0_335
*683 FILLER_0_339
*684 FILLER_0_35
*685 FILLER_0_350
*686 FILLER_0_357
*687 FILLER_0_364
*688 FILLER_0_371
*689 FILLER_0_382
*690 FILLER_0_389
*691 FILLER_0_396
*692 FILLER_0_403
*693 FILLER_0_410
*694 FILLER_0_417
*695 FILLER_0_42
*696 FILLER_0_424
*697 FILLER_0_431
*698 FILLER_0_438
*699 FILLER_0_445
*700 FILLER_0_452
*701 FILLER_0_459
*702 FILLER_0_466
*703 FILLER_0_473
*704 FILLER_0_480
*705 FILLER_0_487
*706 FILLER_0_49
*707 FILLER_0_491
*708 FILLER_0_497
*709 FILLER_0_504
*710 FILLER_0_511
*711 FILLER_0_518
*712 FILLER_0_525
*713 FILLER_0_532
*714 FILLER_0_544
*715 FILLER_0_551
*716 FILLER_0_558
*717 FILLER_0_56
*718 FILLER_0_565
*719 FILLER_0_572
*720 FILLER_0_579
*721 FILLER_0_586
*722 FILLER_0_593
*723 FILLER_0_600
*724 FILLER_0_607
*725 FILLER_0_614
*726 FILLER_0_621
*727 FILLER_0_628
*728 FILLER_0_63
*729 FILLER_0_635
*730 FILLER_0_642
*731 FILLER_0_649
*732 FILLER_0_653
*733 FILLER_0_660
*734 FILLER_0_664
*735 FILLER_0_7
*736 FILLER_0_70
*737 FILLER_0_77
*738 FILLER_0_84
*739 FILLER_0_91
*740 FILLER_0_98
*741 FILLER_10_0
*742 FILLER_10_103
*743 FILLER_10_110
*744 FILLER_10_139
*745 FILLER_10_14
*746 FILLER_10_146
*747 FILLER_10_153
*748 FILLER_10_160
*749 FILLER_10_167
*750 FILLER_10_174
*751 FILLER_10_181
*752 FILLER_10_188
*753 FILLER_10_195
*754 FILLER_10_202
*755 FILLER_10_209
*756 FILLER_10_21
*757 FILLER_10_216
*758 FILLER_10_228
*759 FILLER_10_235
*760 FILLER_10_241
*761 FILLER_10_245
*762 FILLER_10_250
*763 FILLER_10_257
*764 FILLER_10_264
*765 FILLER_10_271
*766 FILLER_10_275
*767 FILLER_10_28
*768 FILLER_10_280
*769 FILLER_10_287
*770 FILLER_10_296
*771 FILLER_10_303
*772 FILLER_10_309
*773 FILLER_10_316
*774 FILLER_10_323
*775 FILLER_10_330
*776 FILLER_10_337
*777 FILLER_10_344
*778 FILLER_10_35
*779 FILLER_10_351
*780 FILLER_10_358
*781 FILLER_10_360
*782 FILLER_10_388
*783 FILLER_10_395
*784 FILLER_10_402
*785 FILLER_10_410
*786 FILLER_10_417
*787 FILLER_10_42
*788 FILLER_10_424
*789 FILLER_10_431
*790 FILLER_10_438
*791 FILLER_10_445
*792 FILLER_10_452
*793 FILLER_10_459
*794 FILLER_10_466
*795 FILLER_10_473
*796 FILLER_10_480
*797 FILLER_10_487
*798 FILLER_10_49
*799 FILLER_10_502
*800 FILLER_10_510
*801 FILLER_10_517
*802 FILLER_10_524
*803 FILLER_10_531
*804 FILLER_10_543
*805 FILLER_10_550
*806 FILLER_10_557
*807 FILLER_10_56
*808 FILLER_10_564
*809 FILLER_10_571
*810 FILLER_10_578
*811 FILLER_10_585
*812 FILLER_10_592
*813 FILLER_10_599
*814 FILLER_10_606
*815 FILLER_10_613
*816 FILLER_10_620
*817 FILLER_10_627
*818 FILLER_10_634
*819 FILLER_10_641
*820 FILLER_10_652
*821 FILLER_10_659
*822 FILLER_10_68
*823 FILLER_10_7
*824 FILLER_10_75
*825 FILLER_10_82
*826 FILLER_10_89
*827 FILLER_10_96
*828 FILLER_11_0
*829 FILLER_11_102
*830 FILLER_11_109
*831 FILLER_11_116
*832 FILLER_11_123
*833 FILLER_11_130
*834 FILLER_11_137
*835 FILLER_11_14
*836 FILLER_11_144
*837 FILLER_11_148
*838 FILLER_11_177
*839 FILLER_11_184
*840 FILLER_11_191
*841 FILLER_11_198
*842 FILLER_11_205
*843 FILLER_11_21
*844 FILLER_11_212
*845 FILLER_11_219
*846 FILLER_11_226
*847 FILLER_11_230
*848 FILLER_11_25
*849 FILLER_11_259
*850 FILLER_11_263
*851 FILLER_11_318
*852 FILLER_11_325
*853 FILLER_11_332
*854 FILLER_11_336
*855 FILLER_11_348
*856 FILLER_11_355
*857 FILLER_11_36
*858 FILLER_11_362
*859 FILLER_11_364
*860 FILLER_11_375
*861 FILLER_11_382
*862 FILLER_11_389
*863 FILLER_11_396
*864 FILLER_11_403
*865 FILLER_11_410
*866 FILLER_11_417
*867 FILLER_11_424
*868 FILLER_11_43
*869 FILLER_11_431
*870 FILLER_11_438
*871 FILLER_11_445
*872 FILLER_11_452
*873 FILLER_11_459
*874 FILLER_11_466
*875 FILLER_11_473
*876 FILLER_11_480
*877 FILLER_11_487
*878 FILLER_11_494
*879 FILLER_11_50
*880 FILLER_11_501
*881 FILLER_11_508
*882 FILLER_11_515
*883 FILLER_11_522
*884 FILLER_11_529
*885 FILLER_11_542
*886 FILLER_11_549
*887 FILLER_11_553
*888 FILLER_11_57
*889 FILLER_11_575
*890 FILLER_11_582
*891 FILLER_11_591
*892 FILLER_11_595
*893 FILLER_11_603
*894 FILLER_11_607
*895 FILLER_11_624
*896 FILLER_11_631
*897 FILLER_11_638
*898 FILLER_11_640
*899 FILLER_11_658
*900 FILLER_11_665
*901 FILLER_11_67
*902 FILLER_11_7
*903 FILLER_11_74
*904 FILLER_11_81
*905 FILLER_11_88
*906 FILLER_11_95
*907 FILLER_12_0
*908 FILLER_12_124
*909 FILLER_12_131
*910 FILLER_12_138
*911 FILLER_12_145
*912 FILLER_12_152
*913 FILLER_12_154
*914 FILLER_12_159
*915 FILLER_12_166
*916 FILLER_12_173
*917 FILLER_12_175
*918 FILLER_12_230
*919 FILLER_12_237
*920 FILLER_12_244
*921 FILLER_12_246
*922 FILLER_12_251
*923 FILLER_12_259
*924 FILLER_12_266
*925 FILLER_12_274
*926 FILLER_12_278
*927 FILLER_12_283
*928 FILLER_12_29
*929 FILLER_12_290
*930 FILLER_12_297
*931 FILLER_12_304
*932 FILLER_12_31
*933 FILLER_12_310
*934 FILLER_12_317
*935 FILLER_12_321
*936 FILLER_12_349
*937 FILLER_12_356
*938 FILLER_12_363
*939 FILLER_12_370
*940 FILLER_12_377
*941 FILLER_12_384
*942 FILLER_12_39
*943 FILLER_12_391
*944 FILLER_12_398
*945 FILLER_12_414
*946 FILLER_12_421
*947 FILLER_12_428
*948 FILLER_12_435
*949 FILLER_12_437
*950 FILLER_12_446
*951 FILLER_12_46
*952 FILLER_12_467
*953 FILLER_12_474
*954 FILLER_12_481
*955 FILLER_12_488
*956 FILLER_12_497
*957 FILLER_12_503
*958 FILLER_12_510
*959 FILLER_12_517
*960 FILLER_12_524
*961 FILLER_12_528
*962 FILLER_12_53
*963 FILLER_12_542
*964 FILLER_12_549
*965 FILLER_12_556
*966 FILLER_12_563
*967 FILLER_12_570
*968 FILLER_12_577
*969 FILLER_12_584
*970 FILLER_12_591
*971 FILLER_12_598
*972 FILLER_12_605
*973 FILLER_12_612
*974 FILLER_12_620
*975 FILLER_12_627
*976 FILLER_12_634
*977 FILLER_12_641
*978 FILLER_12_643
*979 FILLER_12_65
*980 FILLER_12_656
*981 FILLER_12_663
*982 FILLER_12_665
*983 FILLER_12_67
*984 FILLER_12_72
*985 FILLER_12_79
*986 FILLER_12_86
*987 FILLER_12_93
*988 FILLER_13_0
*989 FILLER_13_104
*990 FILLER_13_111
*991 FILLER_13_118
*992 FILLER_13_125
*993 FILLER_13_14
*994 FILLER_13_154
*995 FILLER_13_161
*996 FILLER_13_168
*997 FILLER_13_175
*998 FILLER_13_182
*999 FILLER_13_189
*1000 FILLER_13_196
*1001 FILLER_13_203
*1002 FILLER_13_21
*1003 FILLER_13_210
*1004 FILLER_13_217
*1005 FILLER_13_224
*1006 FILLER_13_231
*1007 FILLER_13_235
*1008 FILLER_13_242
*1009 FILLER_13_249
*1010 FILLER_13_256
*1011 FILLER_13_263
*1012 FILLER_13_270
*1013 FILLER_13_277
*1014 FILLER_13_28
*1015 FILLER_13_284
*1016 FILLER_13_291
*1017 FILLER_13_298
*1018 FILLER_13_305
*1019 FILLER_13_309
*1020 FILLER_13_315
*1021 FILLER_13_322
*1022 FILLER_13_332
*1023 FILLER_13_339
*1024 FILLER_13_346
*1025 FILLER_13_35
*1026 FILLER_13_353
*1027 FILLER_13_391
*1028 FILLER_13_42
*1029 FILLER_13_427
*1030 FILLER_13_434
*1031 FILLER_13_441
*1032 FILLER_13_456
*1033 FILLER_13_458
*1034 FILLER_13_467
*1035 FILLER_13_474
*1036 FILLER_13_481
*1037 FILLER_13_488
*1038 FILLER_13_49
*1039 FILLER_13_495
*1040 FILLER_13_499
*1041 FILLER_13_508
*1042 FILLER_13_515
*1043 FILLER_13_522
*1044 FILLER_13_529
*1045 FILLER_13_536
*1046 FILLER_13_553
*1047 FILLER_13_56
*1048 FILLER_13_560
*1049 FILLER_13_567
*1050 FILLER_13_571
*1051 FILLER_13_593
*1052 FILLER_13_602
*1053 FILLER_13_609
*1054 FILLER_13_616
*1055 FILLER_13_620
*1056 FILLER_13_624
*1057 FILLER_13_631
*1058 FILLER_13_638
*1059 FILLER_13_645
*1060 FILLER_13_652
*1061 FILLER_13_659
*1062 FILLER_13_7
*1063 FILLER_13_90
*1064 FILLER_13_97
*1065 FILLER_14_0
*1066 FILLER_14_102
*1067 FILLER_14_109
*1068 FILLER_14_113
*1069 FILLER_14_119
*1070 FILLER_14_130
*1071 FILLER_14_137
*1072 FILLER_14_14
*1073 FILLER_14_144
*1074 FILLER_14_151
*1075 FILLER_14_158
*1076 FILLER_14_163
*1077 FILLER_14_170
*1078 FILLER_14_177
*1079 FILLER_14_184
*1080 FILLER_14_191
*1081 FILLER_14_198
*1082 FILLER_14_205
*1083 FILLER_14_21
*1084 FILLER_14_212
*1085 FILLER_14_219
*1086 FILLER_14_226
*1087 FILLER_14_233
*1088 FILLER_14_242
*1089 FILLER_14_249
*1090 FILLER_14_256
*1091 FILLER_14_270
*1092 FILLER_14_277
*1093 FILLER_14_28
*1094 FILLER_14_284
*1095 FILLER_14_291
*1096 FILLER_14_314
*1097 FILLER_14_321
*1098 FILLER_14_328
*1099 FILLER_14_335
*1100 FILLER_14_342
*1101 FILLER_14_349
*1102 FILLER_14_356
*1103 FILLER_14_363
*1104 FILLER_14_370
*1105 FILLER_14_377
*1106 FILLER_14_384
*1107 FILLER_14_391
*1108 FILLER_14_398
*1109 FILLER_14_405
*1110 FILLER_14_412
*1111 FILLER_14_419
*1112 FILLER_14_426
*1113 FILLER_14_433
*1114 FILLER_14_440
*1115 FILLER_14_447
*1116 FILLER_14_454
*1117 FILLER_14_461
*1118 FILLER_14_468
*1119 FILLER_14_475
*1120 FILLER_14_482
*1121 FILLER_14_484
*1122 FILLER_14_512
*1123 FILLER_14_519
*1124 FILLER_14_523
*1125 FILLER_14_528
*1126 FILLER_14_535
*1127 FILLER_14_542
*1128 FILLER_14_554
*1129 FILLER_14_561
*1130 FILLER_14_568
*1131 FILLER_14_575
*1132 FILLER_14_582
*1133 FILLER_14_586
*1134 FILLER_14_598
*1135 FILLER_14_60
*1136 FILLER_14_605
*1137 FILLER_14_612
*1138 FILLER_14_619
*1139 FILLER_14_623
*1140 FILLER_14_630
*1141 FILLER_14_658
*1142 FILLER_14_665
*1143 FILLER_14_67
*1144 FILLER_14_7
*1145 FILLER_14_74
*1146 FILLER_14_81
*1147 FILLER_14_88
*1148 FILLER_14_95
*1149 FILLER_15_0
*1150 FILLER_15_110
*1151 FILLER_15_139
*1152 FILLER_15_14
*1153 FILLER_15_146
*1154 FILLER_15_177
*1155 FILLER_15_184
*1156 FILLER_15_21
*1157 FILLER_15_212
*1158 FILLER_15_219
*1159 FILLER_15_226
*1160 FILLER_15_237
*1161 FILLER_15_244
*1162 FILLER_15_251
*1163 FILLER_15_258
*1164 FILLER_15_265
*1165 FILLER_15_267
*1166 FILLER_15_273
*1167 FILLER_15_278
*1168 FILLER_15_28
*1169 FILLER_15_285
*1170 FILLER_15_289
*1171 FILLER_15_296
*1172 FILLER_15_303
*1173 FILLER_15_310
*1174 FILLER_15_315
*1175 FILLER_15_322
*1176 FILLER_15_35
*1177 FILLER_15_353
*1178 FILLER_15_360
*1179 FILLER_15_367
*1180 FILLER_15_374
*1181 FILLER_15_381
*1182 FILLER_15_385
*1183 FILLER_15_393
*1184 FILLER_15_400
*1185 FILLER_15_407
*1186 FILLER_15_414
*1187 FILLER_15_42
*1188 FILLER_15_421
*1189 FILLER_15_428
*1190 FILLER_15_435
*1191 FILLER_15_442
*1192 FILLER_15_449
*1193 FILLER_15_456
*1194 FILLER_15_463
*1195 FILLER_15_470
*1196 FILLER_15_477
*1197 FILLER_15_484
*1198 FILLER_15_49
*1199 FILLER_15_491
*1200 FILLER_15_498
*1201 FILLER_15_505
*1202 FILLER_15_512
*1203 FILLER_15_519
*1204 FILLER_15_526
*1205 FILLER_15_533
*1206 FILLER_15_540
*1207 FILLER_15_547
*1208 FILLER_15_554
*1209 FILLER_15_56
*1210 FILLER_15_561
*1211 FILLER_15_568
*1212 FILLER_15_575
*1213 FILLER_15_582
*1214 FILLER_15_589
*1215 FILLER_15_596
*1216 FILLER_15_603
*1217 FILLER_15_610
*1218 FILLER_15_617
*1219 FILLER_15_624
*1220 FILLER_15_63
*1221 FILLER_15_631
*1222 FILLER_15_638
*1223 FILLER_15_645
*1224 FILLER_15_652
*1225 FILLER_15_659
*1226 FILLER_15_7
*1227 FILLER_15_70
*1228 FILLER_15_77
*1229 FILLER_15_81
*1230 FILLER_16_0
*1231 FILLER_16_105
*1232 FILLER_16_112
*1233 FILLER_16_119
*1234 FILLER_16_12
*1235 FILLER_16_126
*1236 FILLER_16_133
*1237 FILLER_16_140
*1238 FILLER_16_147
*1239 FILLER_16_154
*1240 FILLER_16_161
*1241 FILLER_16_168
*1242 FILLER_16_174
*1243 FILLER_16_181
*1244 FILLER_16_188
*1245 FILLER_16_195
*1246 FILLER_16_202
*1247 FILLER_16_209
*1248 FILLER_16_216
*1249 FILLER_16_223
*1250 FILLER_16_230
*1251 FILLER_16_242
*1252 FILLER_16_249
*1253 FILLER_16_256
*1254 FILLER_16_26
*1255 FILLER_16_263
*1256 FILLER_16_270
*1257 FILLER_16_277
*1258 FILLER_16_284
*1259 FILLER_16_290
*1260 FILLER_16_297
*1261 FILLER_16_304
*1262 FILLER_16_311
*1263 FILLER_16_318
*1264 FILLER_16_325
*1265 FILLER_16_33
*1266 FILLER_16_332
*1267 FILLER_16_339
*1268 FILLER_16_346
*1269 FILLER_16_374
*1270 FILLER_16_381
*1271 FILLER_16_40
*1272 FILLER_16_412
*1273 FILLER_16_419
*1274 FILLER_16_423
*1275 FILLER_16_452
*1276 FILLER_16_459
*1277 FILLER_16_47
*1278 FILLER_16_488
*1279 FILLER_16_495
*1280 FILLER_16_502
*1281 FILLER_16_509
*1282 FILLER_16_511
*1283 FILLER_16_517
*1284 FILLER_16_524
*1285 FILLER_16_531
*1286 FILLER_16_538
*1287 FILLER_16_54
*1288 FILLER_16_540
*1289 FILLER_16_550
*1290 FILLER_16_559
*1291 FILLER_16_566
*1292 FILLER_16_573
*1293 FILLER_16_580
*1294 FILLER_16_595
*1295 FILLER_16_602
*1296 FILLER_16_609
*1297 FILLER_16_61
*1298 FILLER_16_616
*1299 FILLER_16_620
*1300 FILLER_16_629
*1301 FILLER_16_633
*1302 FILLER_16_665
*1303 FILLER_16_68
*1304 FILLER_16_7
*1305 FILLER_16_75
*1306 FILLER_16_84
*1307 FILLER_16_91
*1308 FILLER_16_98
*1309 FILLER_17_0
*1310 FILLER_17_101
*1311 FILLER_17_112
*1312 FILLER_17_119
*1313 FILLER_17_126
*1314 FILLER_17_133
*1315 FILLER_17_140
*1316 FILLER_17_147
*1317 FILLER_17_154
*1318 FILLER_17_161
*1319 FILLER_17_168
*1320 FILLER_17_175
*1321 FILLER_17_182
*1322 FILLER_17_186
*1323 FILLER_17_2
*1324 FILLER_17_214
*1325 FILLER_17_221
*1326 FILLER_17_225
*1327 FILLER_17_241
*1328 FILLER_17_248
*1329 FILLER_17_255
*1330 FILLER_17_271
*1331 FILLER_17_276
*1332 FILLER_17_283
*1333 FILLER_17_289
*1334 FILLER_17_296
*1335 FILLER_17_30
*1336 FILLER_17_330
*1337 FILLER_17_337
*1338 FILLER_17_344
*1339 FILLER_17_351
*1340 FILLER_17_358
*1341 FILLER_17_365
*1342 FILLER_17_37
*1343 FILLER_17_372
*1344 FILLER_17_379
*1345 FILLER_17_386
*1346 FILLER_17_394
*1347 FILLER_17_401
*1348 FILLER_17_408
*1349 FILLER_17_415
*1350 FILLER_17_422
*1351 FILLER_17_429
*1352 FILLER_17_436
*1353 FILLER_17_44
*1354 FILLER_17_443
*1355 FILLER_17_450
*1356 FILLER_17_452
*1357 FILLER_17_459
*1358 FILLER_17_466
*1359 FILLER_17_473
*1360 FILLER_17_480
*1361 FILLER_17_487
*1362 FILLER_17_494
*1363 FILLER_17_51
*1364 FILLER_17_522
*1365 FILLER_17_529
*1366 FILLER_17_536
*1367 FILLER_17_556
*1368 FILLER_17_563
*1369 FILLER_17_570
*1370 FILLER_17_574
*1371 FILLER_17_58
*1372 FILLER_17_595
*1373 FILLER_17_602
*1374 FILLER_17_609
*1375 FILLER_17_613
*1376 FILLER_17_633
*1377 FILLER_17_640
*1378 FILLER_17_647
*1379 FILLER_17_65
*1380 FILLER_17_654
*1381 FILLER_17_661
*1382 FILLER_17_665
*1383 FILLER_17_94
*1384 FILLER_18_0
*1385 FILLER_18_100
*1386 FILLER_18_137
*1387 FILLER_18_14
*1388 FILLER_18_171
*1389 FILLER_18_178
*1390 FILLER_18_185
*1391 FILLER_18_192
*1392 FILLER_18_199
*1393 FILLER_18_206
*1394 FILLER_18_213
*1395 FILLER_18_220
*1396 FILLER_18_227
*1397 FILLER_18_234
*1398 FILLER_18_241
*1399 FILLER_18_248
*1400 FILLER_18_255
*1401 FILLER_18_262
*1402 FILLER_18_269
*1403 FILLER_18_276
*1404 FILLER_18_291
*1405 FILLER_18_298
*1406 FILLER_18_305
*1407 FILLER_18_312
*1408 FILLER_18_319
*1409 FILLER_18_326
*1410 FILLER_18_333
*1411 FILLER_18_337
*1412 FILLER_18_339
*1413 FILLER_18_345
*1414 FILLER_18_352
*1415 FILLER_18_359
*1416 FILLER_18_387
*1417 FILLER_18_394
*1418 FILLER_18_401
*1419 FILLER_18_435
*1420 FILLER_18_442
*1421 FILLER_18_466
*1422 FILLER_18_473
*1423 FILLER_18_480
*1424 FILLER_18_487
*1425 FILLER_18_494
*1426 FILLER_18_499
*1427 FILLER_18_506
*1428 FILLER_18_508
*1429 FILLER_18_513
*1430 FILLER_18_520
*1431 FILLER_18_527
*1432 FILLER_18_534
*1433 FILLER_18_543
*1434 FILLER_18_550
*1435 FILLER_18_557
*1436 FILLER_18_564
*1437 FILLER_18_571
*1438 FILLER_18_578
*1439 FILLER_18_585
*1440 FILLER_18_592
*1441 FILLER_18_599
*1442 FILLER_18_606
*1443 FILLER_18_613
*1444 FILLER_18_620
*1445 FILLER_18_627
*1446 FILLER_18_634
*1447 FILLER_18_641
*1448 FILLER_18_648
*1449 FILLER_18_655
*1450 FILLER_18_662
*1451 FILLER_18_7
*1452 FILLER_18_75
*1453 FILLER_18_82
*1454 FILLER_18_89
*1455 FILLER_18_96
*1456 FILLER_19_0
*1457 FILLER_19_105
*1458 FILLER_19_112
*1459 FILLER_19_119
*1460 FILLER_19_126
*1461 FILLER_19_133
*1462 FILLER_19_14
*1463 FILLER_19_140
*1464 FILLER_19_152
*1465 FILLER_19_156
*1466 FILLER_19_162
*1467 FILLER_19_169
*1468 FILLER_19_176
*1469 FILLER_19_185
*1470 FILLER_19_189
*1471 FILLER_19_21
*1472 FILLER_19_217
*1473 FILLER_19_224
*1474 FILLER_19_231
*1475 FILLER_19_259
*1476 FILLER_19_266
*1477 FILLER_19_273
*1478 FILLER_19_28
*1479 FILLER_19_280
*1480 FILLER_19_286
*1481 FILLER_19_293
*1482 FILLER_19_300
*1483 FILLER_19_307
*1484 FILLER_19_314
*1485 FILLER_19_321
*1486 FILLER_19_35
*1487 FILLER_19_352
*1488 FILLER_19_359
*1489 FILLER_19_366
*1490 FILLER_19_373
*1491 FILLER_19_380
*1492 FILLER_19_387
*1493 FILLER_19_394
*1494 FILLER_19_396
*1495 FILLER_19_400
*1496 FILLER_19_407
*1497 FILLER_19_414
*1498 FILLER_19_42
*1499 FILLER_19_421
*1500 FILLER_19_425
*1501 FILLER_19_431
*1502 FILLER_19_438
*1503 FILLER_19_445
*1504 FILLER_19_452
*1505 FILLER_19_459
*1506 FILLER_19_466
*1507 FILLER_19_473
*1508 FILLER_19_480
*1509 FILLER_19_487
*1510 FILLER_19_49
*1511 FILLER_19_494
*1512 FILLER_19_508
*1513 FILLER_19_515
*1514 FILLER_19_522
*1515 FILLER_19_529
*1516 FILLER_19_536
*1517 FILLER_19_540
*1518 FILLER_19_551
*1519 FILLER_19_558
*1520 FILLER_19_56
*1521 FILLER_19_565
*1522 FILLER_19_572
*1523 FILLER_19_582
*1524 FILLER_19_589
*1525 FILLER_19_600
*1526 FILLER_19_607
*1527 FILLER_19_614
*1528 FILLER_19_621
*1529 FILLER_19_628
*1530 FILLER_19_63
*1531 FILLER_19_634
*1532 FILLER_19_641
*1533 FILLER_19_648
*1534 FILLER_19_656
*1535 FILLER_19_663
*1536 FILLER_19_665
*1537 FILLER_19_7
*1538 FILLER_19_70
*1539 FILLER_19_77
*1540 FILLER_19_84
*1541 FILLER_19_91
*1542 FILLER_19_98
*1543 FILLER_1_0
*1544 FILLER_1_106
*1545 FILLER_1_14
*1546 FILLER_1_144
*1547 FILLER_1_163
*1548 FILLER_1_170
*1549 FILLER_1_203
*1550 FILLER_1_21
*1551 FILLER_1_213
*1552 FILLER_1_242
*1553 FILLER_1_249
*1554 FILLER_1_277
*1555 FILLER_1_28