* NGSPICE file created from PMU.ext - technology: ihp-sg13g2

.subckt PMU VBG_1V IOVSS VDD_1v5 VDD_1v2 IOVDD
X0 a_12211_2096.t1 a_12211_1788.t0 IOVSS.t19 rhigh l=3.58u w=0.5u
X1 VDD_1v5.t11 ldo_1v5_y_0.second_stage_1v5_0.dmv.t5 ldo_1v2_a_0.VDD.t21 ldo_1v2_a_0.VDD.t0 sg13_hv_pmos ad=2.5327p pd=13.71u as=2.5327p ps=13.71u w=13.33u l=1u
X2 a_5285_743.t0 a_5563_572.t1 IOVSS.t40 rhigh l=0.96u w=0.5u
X3 bgr_0.v8t.t9 bgr_0.v8t.t1 IOVSS.t53 IOVSS.t47 sg13_hv_nmos ad=1.0625p pd=6.93u as=1.0625p ps=6.93u w=3.125u l=1.5u
X4 IOVSS.t145 IOVSS.t146 IOVSS.t0 rppd l=1.905u w=0.5u
X5 a_13967_15066.t0 IOVSS.t28 IOVSS.t0 rppd l=1.905u w=0.5u
X6 ldo_1v2_a_0.VDD.t67 bgr_0.out_opm.t8 VBG_1V.t7 ldo_1v2_a_0.VDD.t33 sg13_hv_pmos ad=0.2375p pd=1.63u as=0.425p ps=3.18u w=1.25u l=1.8u
X7 IOVSS.t232 IOVSS.t233 IOVSS.t20 rppd l=1.905u w=0.5u
X8 IOVSS.t124 IOVSS.t109 IOVSS.t123 IOVSS.t110 sg13_hv_nmos ad=3.4p pd=20.68u as=0 ps=0 w=10u l=2u
X9 a_4693_228.t1 a_5127_228.t0 IOVSS.t18 rhigh l=0.96u w=0.5u
X10 VDD_1v2.t3 ldo_1v2_a_0.first_stage_0/diff_pairs_0.dmr.t5 ldo_1v2_a_0.VDD.t46 ldo_1v2_a_0.VDD.t35 sg13_hv_pmos ad=3.325p pd=17.88u as=3.325p ps=17.88u w=17.5u l=1u
X11 VDD_1v5.t14 ldo_1v5_y_0.second_stage_1v5_0.dmv.t5 ldo_1v2_a_0.VDD.t19 ldo_1v2_a_0.VDD.t0 sg13_hv_pmos ad=2.5327p pd=13.71u as=2.5327p ps=13.71u w=13.33u l=1u
X12 bgr_0.vp.t3 bgr_0.out_opm.t9 ldo_1v2_a_0.VDD.t74 ldo_1v2_a_0.VDD.t33 sg13_hv_pmos ad=1.14p pd=6.38u as=1.14p ps=6.38u w=6u l=2u
X13 a_12893_15554.t1 a_13360_15724.t0 IOVSS.t9 rppd l=1.905u w=0.5u
X14 ldo_1v2_a_0.VDD.t37 ldo_1v2_a_0.first_stage_0/diff_pairs_0.dmr.t5 VDD_1v2.t4 ldo_1v2_a_0.VDD.t35 sg13_hv_pmos ad=3.325p pd=17.88u as=3.325p ps=17.88u w=17.5u l=1u
X15 ldo_1v2_a_0.VDD.t2 ldo_1v5_y_0.second_stage_1v5_0.dmv.t5 VDD_1v5.t13 ldo_1v2_a_0.VDD.t0 sg13_hv_pmos ad=2.5327p pd=13.71u as=2.5327p ps=13.71u w=13.33u l=1u
X16 IOVSS.t121 IOVSS.t63 IOVSS.t120 IOVSS.t64 sg13_hv_nmos ad=3.4p pd=20.68u as=0 ps=0 w=10u l=2u
X17 a_12893_11222.t1 a_13360_11052.t0 IOVSS.t9 rppd l=1.905u w=0.5u
X18 VDD_1v5.t0 ldo_1v5_y_0.second_stage_1v5_0.dmv.t5 ldo_1v2_a_0.VDD.t24 ldo_1v2_a_0.VDD.t0 sg13_hv_pmos ad=2.5327p pd=13.71u as=2.5327p ps=13.71u w=13.33u l=1u
X19 IOVSS.t171 IOVSS.t172 IOVSS.t20 rppd l=1.905u w=0.5u
X20 a_12834_14386.t0 bgr_0.v8t.t0 IOVSS.t147 rppd l=2.2u w=0.5u
X21 IOVSS.t52 bgr_0.v8t.t1 bgr_0.v8t.t8 IOVSS.t51 sg13_hv_nmos ad=1.0625p pd=6.93u as=1.0625p ps=6.93u w=3.125u l=1.5u
X22 ldo_1v2_a_0.VDD.t9 ldo_1v5_y_0.second_stage_1v5_0.dmv.t5 VDD_1v5.t7 ldo_1v2_a_0.VDD.t0 sg13_hv_pmos ad=2.5327p pd=13.71u as=2.5327p ps=13.71u w=13.33u l=1u
X23 ldo_1v2_a_0.VDD.t53 ldo_1v2_a_0.first_stage_0/diff_pairs_0.dmr.t5 VDD_1v2.t10 ldo_1v2_a_0.VDD.t35 sg13_hv_pmos ad=5.95p pd=35.68u as=3.325p ps=17.88u w=17.5u l=1u
X24 bgr_0.opm_bgr_0.bgr_second_stage_0.bgr_second_stage_cs_0.Vos1.t3 bgr_0.opm_bgr_0.bgr_first_stage_0/bgr_diff_0.ref.t0 IOVSS.t61 IOVSS.t60 sg13_hv_nmos ad=0.85p pd=5.68u as=0.85p ps=5.68u w=2.5u l=6u
X25 bgr_0.out_opm.t1 bgr_0.opm_bgr_0.bgr_second_stage_0.bgr_second_stage_cs_0.Vos1.t5 IOVSS.t17 IOVSS.t15 sg13_hv_nmos ad=1.6625p pd=9.13u as=2.975p ps=18.18u w=8.75u l=6u
X26 IOVSS.t155 IOVSS.t156 IOVSS.t20 rppd l=1.905u w=0.5u
X27 a_13967_13898.t1 a_14434_13728.t0 IOVSS.t0 rppd l=1.905u w=0.5u
X28 a_12834_13558.t0 a_13360_13388.t1 IOVSS.t147 rppd l=2.2u w=0.5u
X29 ldo_1v5_y_0.first_stage$1_0/bias_cur$1_0.i_ref.t0 ldo_1v5_y_0.first_stage$1_0/bias_cur$1_0.i_ref.t1 IOVSS.t239 IOVSS.t241 sg13_hv_nmos ad=0.855p pd=4.88u as=0.855p ps=4.88u w=4.5u l=2u
X30 a_3979_915.t0 IOVSS.t144 IOVSS.t143 rhigh l=0.96u w=0.5u
X31 VBG_1V.t6 bgr_0.out_opm.t10 ldo_1v2_a_0.VDD.t68 ldo_1v2_a_0.VDD.t33 sg13_hv_pmos ad=0.425p pd=3.18u as=0.2375p ps=1.63u w=1.25u l=1.8u
X32 bgr_0.v8t.t7 bgr_0.v8t.t1 IOVSS.t50 IOVSS.t41 sg13_hv_nmos ad=1.0625p pd=6.93u as=1.0625p ps=6.93u w=3.125u l=1.5u
X33 ldo_1v2_a_0.VDD.t61 bgr_0.opm_bgr_0.bgr_second_stage_0.bgr_second_stage_al_0.Vbias.t4 bgr_0.opm_bgr_0.bgr_second_stage_0.bgr_second_stage_al_0.Vbias.t5 ldo_1v2_a_0.VDD.t64 sg13_hv_pmos ad=0.95p pd=5.38u as=0.95p ps=5.38u w=5u l=2u
X34 ldo_1v2_a_0.VDD.t71 ldo_1v2_a_0.VDD.t132 ldo_1v2_a_0.VDD.t71 ldo_1v2_a_0.VDD.t33 sg13_hv_pmos ad=1.14p pd=6.38u as=0 ps=0 w=6u l=2u
X35 a_12834_12390.t1 a_13360_12560.t1 IOVSS.t147 rppd l=2.2u w=0.5u
X36 a_13967_12050.t0 IOVSS.t62 IOVSS.t0 rppd l=1.905u w=0.5u
X37 a_3979_572.t1 a_4257_743.t1 IOVSS.t143 rhigh l=0.96u w=0.5u
X38 VDD_1v5.t15 ldo_1v5_y_0.second_stage_1v5_0.dmv.t5 ldo_1v2_a_0.VDD.t15 ldo_1v2_a_0.VDD.t0 sg13_hv_pmos ad=4.5322p pd=27.34u as=2.5327p ps=13.71u w=13.33u l=1u
X39 ldo_1v2_a_0.VDD.t131 ldo_1v2_a_0.VDD.t129 ldo_1v2_a_0.VDD.t130 ldo_1v2_a_0.VDD.t60 sg13_hv_pmos ad=1.7p pd=10.68u as=0 ps=0 w=5u l=0.5u
X40 ldo_1v2_a_0.VDD.t139 bgr_0.opm_bgr_0.bgr_second_stage_0.bgr_second_stage_al_0.Vbias.t10 bgr_0.out_opm.t7 ldo_1v2_a_0.VDD.t60 sg13_hv_pmos ad=1.425p pd=7.88u as=2.55p ps=15.68u w=7.5u l=1.5u
X41 IOVSS.t207 IOVSS.t208 IOVSS.t0 rppd l=1.905u w=0.5u
X42 bgr_0.out_opm.t6 bgr_0.opm_bgr_0.bgr_second_stage_0.bgr_second_stage_al_0.Vbias.t10 ldo_1v2_a_0.VDD.t140 ldo_1v2_a_0.VDD.t60 sg13_hv_pmos ad=2.55p pd=15.68u as=1.425p ps=7.88u w=7.5u l=1.5u
X43 IOVSS.t59 bgr_0.opm_bgr_0.bgr_first_stage_0/bgr_diff_0.ref.t0 bgr_0.opm_bgr_0.bgr_first_stage_0/bgr_diff_0.ref.t2 IOVSS.t58 sg13_hv_nmos ad=0.85p pd=5.68u as=0.85p ps=5.68u w=2.5u l=6u
X44 IOVSS.t210 IOVSS.t211 IOVSS.t0 rppd l=1.905u w=0.5u
X45 IOVSS.t179 bgr_0.opm_bgr_0.bgr_second_stage_0.bgr_second_stage_al_0.Vbias.t0 bgr_0.opm_bgr_0.bgr_second_stage_0.bgr_second_stage_al_0.Vbias.t1 IOVSS.t178 sg13_hv_nmos ad=1.1322p pd=7.34u as=0.6327p ps=3.71u w=3.33u l=6u
X46 a_5285_400.t1 a_5563_228.t0 IOVSS.t40 rhigh l=0.96u w=0.5u
X47 bgr_0.inv_out.t3 VBG_1V.t8 IOVSS.t136 IOVSS.t137 sg13_hv_nmos ad=0.2375p pd=1.63u as=0.2375p ps=1.63u w=1.25u l=1u
X48 a_15041_14896.t1 a_15508_15066.t1 IOVSS.t20 rppd l=1.905u w=0.5u
X49 IOVSS.t194 IOVSS.t195 IOVSS.t35 rhigh l=0.96u w=0.5u
X50 ldo_1v2_a_0.VDD.t66 bgr_0.out_opm.t8 VBG_1V.t5 ldo_1v2_a_0.VDD.t33 sg13_hv_pmos ad=0.2375p pd=1.63u as=0.425p ps=3.18u w=1.25u l=1.8u
X51 bgr_0.opm_bgr_0.bgr_first_stage_0/bgr_bias_0.VbD.t1 bgr_0.vn.t3 bgr_0.opm_bgr_0.bgr_first_stage_0/bgr_diff_0.ref.t3 ldo_1v2_a_0.VDD.t31 sg13_hv_pmos ad=1.36p pd=8.68u as=1.36p ps=8.68u w=4u l=1u
X52 a_4693_915.t1 a_5127_400.t0 IOVSS.t18 rhigh l=0.96u w=0.5u
X53 ldo_1v2_a_0.VDD.t74 bgr_0.out_opm.t9 bgr_0.vn.t1 ldo_1v2_a_0.VDD.t33 sg13_hv_pmos ad=1.14p pd=6.38u as=1.14p ps=6.38u w=6u l=2u
X54 a_14982_13218.t1 a_15508_13388.t1 IOVSS.t8 rppd l=2.2u w=0.5u
X55 ldo_1v2_a_0.VDD.t24 ldo_1v5_y_0.second_stage_1v5_0.dmv.t5 VDD_1v5.t1 ldo_1v2_a_0.VDD.t0 sg13_hv_pmos ad=2.5327p pd=13.71u as=2.5327p ps=13.71u w=13.33u l=1u
X56 IOVSS.t118 IOVSS.t116 ldo_1v5_y_0.first_stage$1_0/bias_cur$1_0.i_ref.t0 IOVSS.t117 sg13_hv_nmos ad=1.53p pd=9.68u as=0.855p ps=4.88u w=4.5u l=2u
X57 a_4693_743.t0 a_5127_572.t0 IOVSS.t18 rhigh l=0.96u w=0.5u
X58 VDD_1v2.t9 ldo_1v2_a_0.first_stage_0/diff_pairs_0.dmr.t5 ldo_1v2_a_0.VDD.t52 ldo_1v2_a_0.VDD.t35 sg13_hv_pmos ad=3.325p pd=17.88u as=5.95p ps=35.68u w=17.5u l=1u
X59 IOVSS.t244 IOVSS.t245 IOVSS.t29 rhigh l=0.96u w=0.5u
X60 a_4257_1087.t0 a_4693_1087.t0 IOVSS.t23 rhigh l=0.96u w=0.5u
X61 ldo_1v2_a_0.VDD.t128 ldo_1v2_a_0.VDD.t100 ldo_1v2_a_0.VDD.t127 ldo_1v2_a_0.VDD.t101 sg13_hv_pmos ad=1.36p pd=8.68u as=0 ps=0 w=4u l=0.5u
X62 ldo_1v2_a_0.VDD.t18 ldo_1v5_y_0.second_stage_1v5_0.dmv.t5 VDD_1v5.t14 ldo_1v2_a_0.VDD.t0 sg13_hv_pmos ad=2.5327p pd=13.71u as=2.5327p ps=13.71u w=13.33u l=1u
X63 VDD_1v2.t10 ldo_1v2_a_0.first_stage_0/diff_pairs_0.dmr.t5 ldo_1v2_a_0.VDD.t36 ldo_1v2_a_0.VDD.t35 sg13_hv_pmos ad=3.325p pd=17.88u as=3.325p ps=17.88u w=17.5u l=1u
X64 ldo_1v2_a_0.VDD.t125 ldo_1v2_a_0.VDD.t123 ldo_1v2_a_0.VDD.t124 ldo_1v2_a_0.VDD.t33 sg13_hv_pmos ad=1.1203p pd=7.27u as=0 ps=0 w=3.295u l=0.5u
X65 VDD_1v2.t7 ldo_1v2_a_0.first_stage_0/diff_pairs_0.dmr.t5 ldo_1v2_a_0.VDD.t49 ldo_1v2_a_0.VDD.t35 sg13_hv_pmos ad=3.325p pd=17.88u as=3.325p ps=17.88u w=17.5u l=1u
X66 ldo_1v2_a_0.VDD.t63 bgr_0.opm_bgr_0.bgr_second_stage_0.bgr_second_stage_al_0.Vbias.t4 bgr_0.opm_bgr_0.bgr_first_stage_0/bgr_bias_0.VbD.t4 ldo_1v2_a_0.VDD.t62 sg13_hv_pmos ad=1.7p pd=10.68u as=1.7p ps=10.68u w=5u l=5u
X67 VBG_1V.t4 bgr_0.out_opm.t10 ldo_1v2_a_0.VDD.t65 ldo_1v2_a_0.VDD.t33 sg13_hv_pmos ad=0.425p pd=3.18u as=0.2375p ps=1.63u w=1.25u l=1.8u
X68 a_12893_11562.t1 a_13360_11732.t2 IOVSS.t9 rppd l=1.905u w=0.5u
X69 a_12834_14726.t0 a_13360_14896.t1 IOVSS.t147 rppd l=2.2u w=0.5u
X70 a_13967_14386.t0 a_13360_13218.t0 IOVSS.t0 rppd l=1.905u w=0.5u
X71 ldo_1v2_a_0.VDD.t68 bgr_0.out_opm.t8 VBG_1V.t3 ldo_1v2_a_0.VDD.t33 sg13_hv_pmos ad=0.2375p pd=1.63u as=0.2375p ps=1.63u w=1.25u l=1.8u
X72 IOVSS.t21 IOVSS.t22 IOVSS.t20 rppd l=1.905u w=0.5u
X73 ldo_1v2_a_0.VDD.t122 ldo_1v2_a_0.VDD.t117 ldo_1v2_a_0.VDD.t121 ldo_1v2_a_0.VDD.t91 sg13_hv_pmos ad=1.7p pd=10.68u as=0 ps=0 w=5u l=1u
X74 VBG_1V.t3 bgr_0.out_opm.t8 ldo_1v2_a_0.VDD.t67 ldo_1v2_a_0.VDD.t33 sg13_hv_pmos ad=0.2375p pd=1.63u as=0.2375p ps=1.63u w=1.25u l=1.8u
X75 a_13967_13558.t0 a_14434_13388.t1 IOVSS.t0 rppd l=1.905u w=0.5u
X76 IOVSS.t183 IOVSS.t184 IOVSS.t20 rppd l=1.905u w=0.5u
X77 a_3979_228.t1 a_4257_400.t1 IOVSS.t143 rhigh l=0.96u w=0.5u
X78 IOVSS.t115 IOVSS.t94 IOVSS.t114 IOVSS.t95 sg13_hv_nmos ad=0.85p pd=5.68u as=0 ps=0 w=2.5u l=0.5u
X79 a_15041_14556.t1 a_15508_14726.t1 IOVSS.t20 rppd l=1.905u w=0.5u
X80 a_12834_13218.t1 a_13360_13218.t3 IOVSS.t147 rppd l=2.2u w=0.5u
X81 a_13967_12390.t0 a_14434_12560.t1 IOVSS.t0 rppd l=1.905u w=0.5u
X82 ldo_1v2_a_0.VDD.t119 ldo_1v2_a_0.VDD.t117 ldo_1v2_a_0.VDD.t118 ldo_1v2_a_0.VDD.t91 sg13_hv_pmos ad=1.7p pd=10.68u as=0 ps=0 w=5u l=1u
X83 a_12893_16234.t0 a_13360_16064.t0 IOVSS.t9 rppd l=1.905u w=0.5u
X84 a_12834_12050.t1 a_13360_12220.t1 IOVSS.t147 rppd l=2.2u w=0.5u
X85 IOVSS.t112 IOVSS.t109 IOVSS.t111 IOVSS.t110 sg13_hv_nmos ad=3.4p pd=20.68u as=0 ps=0 w=10u l=2u
X86 IOVSS.t165 IOVSS.t166 IOVSS.t0 rppd l=1.905u w=0.5u
X87 IOVSS.t36 IOVSS.t37 IOVSS.t35 rhigh l=0.96u w=0.5u
X88 a_13360_13218.t1 a_15508_12730.t1 IOVSS.t20 rppd l=1.905u w=0.5u
X89 ldo_1v2_a_0.first_stage_0/bias_cur_0.i_ref.t0 ldo_1v2_a_0.first_stage_0/bias_cur_0.i_ref.t1 IOVSS.t235 IOVSS.t237 sg13_hv_nmos ad=0.855p pd=4.88u as=0.855p ps=4.88u w=4.5u l=2u
X90 a_4257_228.t1 a_4693_228.t0 IOVSS.t23 rhigh l=0.96u w=0.5u
X91 a_4693_1087.t1 a_5127_1087.t0 IOVSS.t18 rhigh l=0.96u w=0.5u
X92 a_12834_13898.t1 a_13360_11732.t1 IOVSS.t147 rppd l=2.2u w=0.5u
X93 IOVSS.t149 IOVSS.t150 IOVSS.t35 rhigh l=0.96u w=0.5u
X94 IOVSS.t157 IOVSS.t158 IOVSS.t0 rppd l=1.905u w=0.5u
X95 ldo_1v2_a_0.first_stage_0/diff_pairs_0.dmv.t3 ldo_1v2_a_0.first_stage_0/diff_pairs_0.dmv.t1 ldo_1v2_a_0.VDD.t153 ldo_1v2_a_0.VDD.t105 sg13_hv_pmos ad=1.7p pd=10.68u as=1.7p ps=10.68u w=5u l=1u
X96 ldo_1v2_a_0.VDD.t49 ldo_1v2_a_0.first_stage_0/diff_pairs_0.dmr.t5 VDD_1v2.t8 ldo_1v2_a_0.VDD.t35 sg13_hv_pmos ad=3.325p pd=17.88u as=3.325p ps=17.88u w=17.5u l=1u
X97 a_13717_1480.t1 a_13717_1344.t0 IOVSS.t34 rhigh l=3.58u w=0.5u
X98 a_4693_400.t1 a_5127_400.t1 IOVSS.t18 rhigh l=0.96u w=0.5u
X99 bgr_0.opm_bgr_0.bgr_first_stage_0/bgr_diff_0.ref.t1 bgr_0.opm_bgr_0.bgr_first_stage_0/bgr_diff_0.ref.t0 IOVSS.t57 IOVSS.t56 sg13_hv_nmos ad=0.85p pd=5.68u as=0.85p ps=5.68u w=2.5u l=6u
X100 a_14982_13898.t1 a_15508_13728.t1 IOVSS.t8 rppd l=2.2u w=0.5u
X101 VDD_1v2.t1 ldo_1v2_a_0.first_stage_0/diff_pairs_0.dmr.t5 ldo_1v2_a_0.VDD.t45 ldo_1v2_a_0.VDD.t35 sg13_hv_pmos ad=3.325p pd=17.88u as=3.325p ps=17.88u w=17.5u l=1u
X102 IOVSS.t108 IOVSS.t106 ldo_1v2_a_0.first_stage_0/bias_cur_0.i_ref.t0 IOVSS.t107 sg13_hv_nmos ad=1.53p pd=9.68u as=0.855p ps=4.88u w=4.5u l=2u
X103 a_13717_2404.t0 a_13717_2096.t1 IOVSS.t34 rhigh l=3.58u w=0.5u
X104 ldo_1v2_a_0.first_stage_0/diff_pairs_0.dmr.t4 ldo_1v2_a_0.first_stage_0/diff_pairs_0.dmv.t1 ldo_1v2_a_0.VDD.t152 ldo_1v2_a_0.VDD.t105 sg13_hv_pmos ad=1.7p pd=10.68u as=1.7p ps=10.68u w=5u l=1u
X105 bgr_0.out_opm.t0 bgr_0.opm_bgr_0.bgr_second_stage_0.bgr_second_stage_cs_0.Vos1.t5 IOVSS.t16 IOVSS.t15 sg13_hv_nmos ad=1.6625p pd=9.13u as=2.975p ps=18.18u w=8.75u l=6u
X106 VDD_1v5.t8 ldo_1v5_y_0.second_stage_1v5_0.dmv.t5 ldo_1v2_a_0.VDD.t17 ldo_1v2_a_0.VDD.t0 sg13_hv_pmos ad=2.5327p pd=13.71u as=2.5327p ps=13.71u w=13.33u l=1u
X107 VBG_1V.t2 bgr_0.out_opm.t8 ldo_1v2_a_0.VDD.t66 ldo_1v2_a_0.VDD.t33 sg13_hv_pmos ad=0.2375p pd=1.63u as=0.2375p ps=1.63u w=1.25u l=1.8u
X108 ldo_1v2_a_0.VDD.t65 bgr_0.out_opm.t8 VBG_1V.t2 ldo_1v2_a_0.VDD.t33 sg13_hv_pmos ad=0.2375p pd=1.63u as=0.2375p ps=1.63u w=1.25u l=1.8u
X109 a_5285_400.t0 a_5563_572.t0 IOVSS.t40 rhigh l=0.96u w=0.5u
X110 ldo_1v2_a_0.VDD.t21 ldo_1v5_y_0.second_stage_1v5_0.dmv.t5 VDD_1v5.t12 ldo_1v2_a_0.VDD.t0 sg13_hv_pmos ad=2.5327p pd=13.71u as=2.5327p ps=13.71u w=13.33u l=1u
X111 IOVSS.t55 bgr_0.opm_bgr_0.bgr_first_stage_0/bgr_diff_0.ref.t0 bgr_0.opm_bgr_0.bgr_second_stage_0.bgr_second_stage_cs_0.Vos1.t2 IOVSS.t54 sg13_hv_nmos ad=0.85p pd=5.68u as=0.85p ps=5.68u w=2.5u l=6u
X112 bgr_0.inv_out.t1 VBG_1V.t8 IOVSS.t130 IOVSS.t140 sg13_hv_nmos ad=0.2375p pd=1.63u as=0.2375p ps=1.63u w=1.25u l=1u
X113 a_13967_14726.t0 a_14434_14896.t1 IOVSS.t0 rppd l=1.905u w=0.5u
X114 a_15041_12220.t1 a_15508_12390.t1 IOVSS.t20 rppd l=1.905u w=0.5u
X115 IOVSS.t14 bgr_0.opm_bgr_0.bgr_second_stage_0.bgr_second_stage_cs_0.Vos1.t5 bgr_0.out_opm.t1 IOVSS.t12 sg13_hv_nmos ad=2.975p pd=18.18u as=1.6625p ps=9.13u w=8.75u l=6u
X116 a_12834_14386.t1 a_13360_14556.t0 IOVSS.t147 rppd l=2.2u w=0.5u
X117 ldo_1v2_a_0.VDD.t116 ldo_1v2_a_0.VDD.t111 ldo_1v2_a_0.VDD.t115 ldo_1v2_a_0.VDD.t105 sg13_hv_pmos ad=1.7p pd=10.68u as=0 ps=0 w=5u l=1u
X118 IOVSS.t153 IOVSS.t154 IOVSS.t20 rppd l=1.905u w=0.5u
X119 IOVSS.t192 IOVSS.t193 IOVSS.t4 rhigh l=3.58u w=0.5u
X120 IOVSS.t214 IOVSS.t215 IOVSS.t35 rhigh l=0.96u w=0.5u
X121 ldo_1v2_a_0.VDD.t137 bgr_0.opm_bgr_0.bgr_second_stage_0.bgr_second_stage_al_0.Vbias.t10 bgr_0.out_opm.t5 ldo_1v2_a_0.VDD.t60 sg13_hv_pmos ad=1.425p pd=7.88u as=1.425p ps=7.88u w=7.5u l=1.5u
X122 a_12834_13558.t1 a_13360_13728.t1 IOVSS.t147 rppd l=2.2u w=0.5u
X123 a_13967_13218.t0 bgr_0.vp.t1 IOVSS.t0 rppd l=1.905u w=0.5u
X124 IOVSS.t105 IOVSS.t102 IOVSS.t104 IOVSS.t103 sg13_hv_nmos ad=1.53p pd=9.68u as=0 ps=0 w=4.5u l=2u
X125 IOVSS.t101 IOVSS.t98 IOVSS.t100 IOVSS.t99 sg13_hv_nmos ad=4.5662p pd=27.54u as=0 ps=0 w=13.43u l=1.5u
X126 a_13967_12050.t1 a_14434_12220.t0 IOVSS.t0 rppd l=1.905u w=0.5u
X127 ldo_1v2_a_0.VDD.t113 ldo_1v2_a_0.VDD.t111 ldo_1v2_a_0.VDD.t112 ldo_1v2_a_0.VDD.t105 sg13_hv_pmos ad=1.7p pd=10.68u as=0 ps=0 w=5u l=1u
X128 ldo_1v2_a_0.VDD.t110 ldo_1v2_a_0.VDD.t104 ldo_1v2_a_0.VDD.t109 ldo_1v2_a_0.VDD.t105 sg13_hv_pmos ad=1.7p pd=10.68u as=0 ps=0 w=5u l=1u
X129 VDD_1v5.t9 ldo_1v5_y_0.second_stage_1v5_0.dmv.t5 ldo_1v2_a_0.VDD.t20 ldo_1v2_a_0.VDD.t0 sg13_hv_pmos ad=2.5327p pd=13.71u as=4.5322p ps=27.34u w=13.33u l=1u
X130 a_13717_1788.t1 a_13717_1480.t0 IOVSS.t34 rhigh l=3.58u w=0.5u
X131 IOVSS.t224 IOVSS.t225 IOVSS.t4 rhigh l=3.58u w=0.5u
X132 bgr_0.out_opm.t5 bgr_0.opm_bgr_0.bgr_second_stage_0.bgr_second_stage_al_0.Vbias.t10 ldo_1v2_a_0.VDD.t138 ldo_1v2_a_0.VDD.t60 sg13_hv_pmos ad=1.425p pd=7.88u as=1.425p ps=7.88u w=7.5u l=1.5u
X133 IOVSS.t97 IOVSS.t94 IOVSS.t96 IOVSS.t95 sg13_hv_nmos ad=0.85p pd=5.68u as=0 ps=0 w=2.5u l=0.5u
X134 a_12834_12730.t1 a_13360_12560.t0 IOVSS.t147 rppd l=2.2u w=0.5u
X135 a_12893_10882.t0 VBG_1V.t0 IOVSS.t9 rppd l=1.905u w=0.5u
X136 ldo_1v2_a_0.VDD.t46 ldo_1v2_a_0.first_stage_0/diff_pairs_0.dmr.t5 VDD_1v2.t9 ldo_1v2_a_0.VDD.t35 sg13_hv_pmos ad=3.325p pd=17.88u as=3.325p ps=17.88u w=17.5u l=1u
X137 ldo_1v2_a_0.VDD.t19 ldo_1v5_y_0.second_stage_1v5_0.dmv.t5 VDD_1v5.t10 ldo_1v2_a_0.VDD.t0 sg13_hv_pmos ad=2.5327p pd=13.71u as=2.5327p ps=13.71u w=13.33u l=1u
X138 VDD_1v2.t0 a_4693_915.t0 IOVSS.t23 rhigh l=0.96u w=0.5u
X139 a_13215_2712.t1 a_13717_2404.t1 IOVSS.t34 rhigh l=3.58u w=0.5u
X140 bgr_0.opm_bgr_0.bgr_first_stage_0/bgr_bias_0.VbD.t3 bgr_0.vp.t4 bgr_0.opm_bgr_0.bgr_second_stage_0.bgr_second_stage_cs_0.Vos1.t1 ldo_1v2_a_0.VDD.t31 sg13_hv_pmos ad=1.36p pd=8.68u as=1.36p ps=8.68u w=4u l=1u
X141 ldo_1v2_a_0.VDD.t107 ldo_1v2_a_0.VDD.t104 ldo_1v2_a_0.VDD.t106 ldo_1v2_a_0.VDD.t105 sg13_hv_pmos ad=1.7p pd=10.68u as=0 ps=0 w=5u l=1u
X142 IOVSS.t93 IOVSS.t74 IOVSS.t92 IOVSS.t75 sg13_hv_nmos ad=3.4p pd=20.68u as=0 ps=0 w=10u l=2u
X143 VDD_1v5.t13 ldo_1v5_y_0.second_stage_1v5_0.dmv.t5 ldo_1v2_a_0.VDD.t18 ldo_1v2_a_0.VDD.t0 sg13_hv_pmos ad=2.5327p pd=13.71u as=2.5327p ps=13.71u w=13.33u l=1u
X144 VDD_1v2.t8 ldo_1v2_a_0.first_stage_0/diff_pairs_0.dmr.t5 ldo_1v2_a_0.VDD.t41 ldo_1v2_a_0.VDD.t35 sg13_hv_pmos ad=3.325p pd=17.88u as=3.325p ps=17.88u w=17.5u l=1u
X145 a_12713_1480.t0 a_12713_1344.t0 IOVSS.t38 rhigh l=3.58u w=0.5u
X146 IOVSS.t218 IOVSS.t219 IOVSS.t35 rhigh l=0.96u w=0.5u
X147 IOVSS.t24 IOVSS.t25 IOVSS.t20 rppd l=1.905u w=0.5u
X148 ldo_1v2_a_0.VDD.t45 ldo_1v2_a_0.first_stage_0/diff_pairs_0.dmr.t5 VDD_1v2.t7 ldo_1v2_a_0.VDD.t35 sg13_hv_pmos ad=3.325p pd=17.88u as=3.325p ps=17.88u w=17.5u l=1u
X149 a_4257_743.t0 a_4693_743.t1 IOVSS.t23 rhigh l=0.96u w=0.5u
X150 a_13967_13898.t0 IOVSS.t204 IOVSS.t0 rppd l=1.905u w=0.5u
X151 IOVSS.t176 bgr_0.opm_bgr_0.bgr_second_stage_0.bgr_second_stage_al_0.Vbias.t0 bgr_0.opm_bgr_0.bgr_second_stage_0.bgr_second_stage_al_0.Vbias.t2 IOVSS.t177 sg13_hv_nmos ad=0.6327p pd=3.71u as=1.1322p ps=7.34u w=3.33u l=6u
X152 bgr_0.v8t.t6 bgr_0.v8t.t1 IOVSS.t49 IOVSS.t47 sg13_hv_nmos ad=1.0625p pd=6.93u as=1.0625p ps=6.93u w=3.125u l=1.5u
X153 VDD_1v5.t6 ldo_1v5_y_0.second_stage_1v5_0.dmv.t5 ldo_1v2_a_0.VDD.t3 ldo_1v2_a_0.VDD.t0 sg13_hv_pmos ad=2.5327p pd=13.71u as=2.5327p ps=13.71u w=13.33u l=1u
X154 a_12713_2404.t0 a_12713_2096.t1 IOVSS.t38 rhigh l=3.58u w=0.5u
X155 bgr_0.opm_bgr_0.bgr_second_stage_0.bgr_second_stage_cs_0.Vos1.t0 bgr_0.vp.t5 bgr_0.opm_bgr_0.bgr_first_stage_0/bgr_bias_0.VbD.t2 ldo_1v2_a_0.VDD.t32 sg13_hv_pmos ad=1.36p pd=8.68u as=1.36p ps=8.68u w=4u l=1u
X156 IOVSS.t217 a_15508_15066.t0 IOVSS.t20 rppd l=1.905u w=0.5u
X157 IOVSS.t90 IOVSS.t88 IOVSS.t89 IOVSS.t45 sg13_hv_nmos ad=4.5662p pd=27.54u as=0 ps=0 w=13.43u l=1.5u
X158 IOVSS.t87 IOVSS.t70 IOVSS.t86 IOVSS.t71 sg13_hv_nmos ad=3.4p pd=20.68u as=0 ps=0 w=10u l=2u
X159 ldo_1v2_a_0.VDD.t17 ldo_1v5_y_0.second_stage_1v5_0.dmv.t5 VDD_1v5.t4 ldo_1v2_a_0.VDD.t0 sg13_hv_pmos ad=2.5327p pd=13.71u as=2.5327p ps=13.71u w=13.33u l=1u
X160 a_14721_1480.t1 a_13717_1344.t1 IOVSS.t182 rhigh l=3.58u w=0.5u
X161 ldo_1v2_a_0.VDD.t103 ldo_1v2_a_0.VDD.t100 ldo_1v2_a_0.VDD.t102 ldo_1v2_a_0.VDD.t101 sg13_hv_pmos ad=1.36p pd=8.68u as=0 ps=0 w=4u l=0.5u
X162 IOVSS.t185 IOVSS.t186 IOVSS.t0 rppd l=1.905u w=0.5u
X163 VDD_1v5.t12 ldo_1v5_y_0.second_stage_1v5_0.dmv.t5 ldo_1v2_a_0.VDD.t12 ldo_1v2_a_0.VDD.t0 sg13_hv_pmos ad=2.5327p pd=13.71u as=2.5327p ps=13.71u w=13.33u l=1u
X164 a_3979_572.t0 a_4257_400.t0 IOVSS.t143 rhigh l=0.96u w=0.5u
X165 bgr_0.opm_bgr_0.bgr_second_stage_0.bgr_second_stage_al_0.Vbias.t8 bgr_0.opm_bgr_0.bgr_second_stage_0.bgr_second_stage_al_0.Vbias.t4 ldo_1v2_a_0.VDD.t61 ldo_1v2_a_0.VDD.t60 sg13_hv_pmos ad=1.7p pd=10.68u as=0.95p ps=5.38u w=5u l=2u
X166 ldo_1v2_a_0.first_stage_0/diff_pairs_0.dmr.t1 a_6428_228.t0 IOVSS.t209 rhigh l=3.935u w=0.52u
X167 IOVSS.t26 IOVSS.t27 IOVSS.t4 rhigh l=3.58u w=0.5u
X168 a_14721_2404.t0 a_14721_2096.t0 IOVSS.t182 rhigh l=3.58u w=0.5u
X169 ldo_1v2_a_0.VDD.t15 ldo_1v5_y_0.second_stage_1v5_0.dmv.t5 VDD_1v5.t11 ldo_1v2_a_0.VDD.t0 sg13_hv_pmos ad=2.5327p pd=13.71u as=2.5327p ps=13.71u w=13.33u l=1u
X170 a_14982_13558.t1 a_15508_13388.t0 IOVSS.t8 rppd l=2.2u w=0.5u
X171 a_5127_1087.t1 a_5563_915.t1 IOVSS.t40 rhigh l=0.96u w=0.5u
X172 bgr_0.v8t.t5 bgr_0.v8t.t1 IOVSS.t48 IOVSS.t47 sg13_hv_nmos ad=1.0625p pd=6.93u as=1.0625p ps=6.93u w=3.125u l=1.5u
X173 a_15852_1685.t0 ldo_1v5_y_0.second_stage_1v5_0.dmv.t0 IOVSS.t230 rhigh l=11.58u w=0.7u
X174 a_13717_2096.t0 a_13717_1788.t0 IOVSS.t34 rhigh l=3.58u w=0.5u
X175 IOVSS.t5 IOVSS.t6 IOVSS.t4 rhigh l=3.58u w=0.5u
X176 IOVSS.t84 IOVSS.t81 IOVSS.t83 IOVSS.t82 sg13_hv_nmos ad=1.53p pd=9.68u as=0 ps=0 w=4.5u l=2u
X177 ldo_1v5_y_0.first_stage$1_0/diff_pairs$1_0.dmv.t2 ldo_1v5_y_0.first_stage$1_0/diff_pairs$1_0.dmv.t0 ldo_1v2_a_0.VDD.t148 ldo_1v2_a_0.VDD.t91 sg13_hv_pmos ad=1.7p pd=10.68u as=1.7p ps=10.68u w=5u l=1u
X178 bgr_0.inv_out.t2 VBG_1V.t8 IOVSS.t132 IOVSS.t139 sg13_hv_nmos ad=0.2375p pd=1.63u as=0.2375p ps=1.63u w=1.25u l=1u
X179 IOVSS.t80 IOVSS.t67 IOVSS.t79 IOVSS.t54 sg13_hv_nmos ad=0.85p pd=5.68u as=0 ps=0 w=2.5u l=0.5u
X180 IOVSS.t46 bgr_0.v8t.t1 bgr_0.v8t.t4 IOVSS.t45 sg13_hv_nmos ad=1.0625p pd=6.93u as=1.0625p ps=6.93u w=3.125u l=1.5u
X181 IOVSS.t39 a_15508_12050.t0 IOVSS.t20 rppd l=1.905u w=0.5u
X182 VDD_1v5.t10 ldo_1v5_y_0.second_stage_1v5_0.dmv.t5 ldo_1v2_a_0.VDD.t13 ldo_1v2_a_0.VDD.t0 sg13_hv_pmos ad=2.5327p pd=13.71u as=2.5327p ps=13.71u w=13.33u l=1u
X183 a_12713_1788.t1 a_12713_1480.t1 IOVSS.t38 rhigh l=3.58u w=0.5u
X184 a_13967_14386.t1 a_14434_14556.t1 IOVSS.t0 rppd l=1.905u w=0.5u
X185 IOVSS.t200 IOVSS.t201 IOVSS.t20 rppd l=1.905u w=0.5u
X186 ldo_1v5_y_0.second_stage_1v5_0.dmv.t3 ldo_1v5_y_0.first_stage$1_0/diff_pairs$1_0.dmv.t0 ldo_1v2_a_0.VDD.t147 ldo_1v2_a_0.VDD.t91 sg13_hv_pmos ad=1.7p pd=10.68u as=1.7p ps=10.68u w=5u l=1u
X187 a_4693_572.t1 a_5127_572.t1 IOVSS.t18 rhigh l=0.96u w=0.5u
X188 VDD_1v5.t17 a_12713_2404.t1 IOVSS.t38 rhigh l=3.58u w=0.5u
X189 a_13967_13558.t1 a_14434_13728.t1 IOVSS.t0 rppd l=1.905u w=0.5u
X190 IOVSS.t226 IOVSS.t227 IOVSS.t20 rppd l=1.905u w=0.5u
X191 IOVSS.t77 IOVSS.t74 IOVSS.t76 IOVSS.t75 sg13_hv_nmos ad=3.4p pd=20.68u as=0 ps=0 w=10u l=2u
X192 a_14721_1788.t0 a_14721_1480.t0 IOVSS.t182 rhigh l=3.58u w=0.5u
X193 IOVSS.t138 VBG_1V.t8 bgr_0.inv_out.t3 IOVSS.t137 sg13_hv_nmos ad=0.425p pd=3.18u as=0.2375p ps=1.63u w=1.25u l=1u
X194 IOVSS.t128 bgr_0.vp.t6 bgr_0.vn.t0 IOVSS.t127 sg13_hv_nmos ad=0.85p pd=5.68u as=0.475p ps=2.88u w=2.5u l=1u
X195 ldo_1v2_a_0.VDD.t13 ldo_1v5_y_0.second_stage_1v5_0.dmv.t5 VDD_1v5.t9 ldo_1v2_a_0.VDD.t0 sg13_hv_pmos ad=2.5327p pd=13.71u as=2.5327p ps=13.71u w=13.33u l=1u
X196 IOVSS.t44 bgr_0.v8t.t1 bgr_0.v8t.t3 IOVSS.t43 sg13_hv_nmos ad=1.0625p pd=6.93u as=1.0625p ps=6.93u w=3.125u l=1.5u
X197 a_13967_12730.t0 a_14434_12560.t0 IOVSS.t0 rppd l=1.905u w=0.5u
X198 ldo_1v2_a_0.first_stage_0/diff_pairs_0.dmv.t4 ldo_1v2_a_0.first_stage_0/diff_pairs_0.vn1v2.t2 ldo_1v2_a_0.first_stage_0/bias_cur_0.d_t.t0 IOVSS.t191 sg13_hv_nmos ad=3.4p pd=20.68u as=3.4p ps=20.68u w=10u l=2u
X199 VDD_1v2.t6 ldo_1v2_a_0.first_stage_0/diff_pairs_0.dmr.t5 ldo_1v2_a_0.VDD.t44 ldo_1v2_a_0.VDD.t35 sg13_hv_pmos ad=3.325p pd=17.88u as=5.95p ps=35.68u w=17.5u l=1u
X200 a_12893_16234.t1 VBG_1V.t1 IOVSS.t9 rppd l=1.905u w=0.5u
X201 ldo_1v2_a_0.VDD.t99 ldo_1v2_a_0.VDD.t90 ldo_1v2_a_0.VDD.t98 ldo_1v2_a_0.VDD.t91 sg13_hv_pmos ad=1.7p pd=10.68u as=0 ps=0 w=5u l=1u
X202 ldo_1v2_a_0.VDD.t12 ldo_1v5_y_0.second_stage_1v5_0.dmv.t5 VDD_1v5.t8 ldo_1v2_a_0.VDD.t0 sg13_hv_pmos ad=2.5327p pd=13.71u as=2.5327p ps=13.71u w=13.33u l=1u
X203 ldo_1v2_a_0.first_stage_0/diff_pairs_0.vn1v2.t1 a_4693_400.t0 IOVSS.t23 rhigh l=0.96u w=0.5u
X204 IOVSS.t202 IOVSS.t203 IOVSS.t4 rhigh l=3.58u w=0.5u
X205 ldo_1v5_y_0.second_stage_1v5_0.vfb.t1 a_14721_2404.t1 IOVSS.t182 rhigh l=3.58u w=0.5u
X206 ldo_1v2_a_0.VDD.t96 ldo_1v2_a_0.VDD.t78 ldo_1v2_a_0.VDD.t95 ldo_1v2_a_0.VDD.t79 sg13_hv_pmos ad=1.36p pd=8.68u as=0 ps=0 w=4u l=0.5u
X207 bgr_0.out_opm.t11 bgr_0.opm_bgr_0.bgr_second_stage_0.bgr_second_stage_cs_0.Vos1.t4 cap_cmim l=40u w=40u
X208 a_3979_915.t1 a_4257_1087.t1 IOVSS.t143 rhigh l=0.96u w=0.5u
X209 a_12834_15066.t1 a_13360_14896.t0 IOVSS.t147 rppd l=2.2u w=0.5u
X210 ldo_1v2_a_0.VDD.t40 ldo_1v2_a_0.first_stage_0/diff_pairs_0.dmr.t5 VDD_1v2.t2 ldo_1v2_a_0.VDD.t35 sg13_hv_pmos ad=3.325p pd=17.88u as=3.325p ps=17.88u w=17.5u l=1u
X211 IOVSS.t136 VBG_1V.t8 bgr_0.inv_out.t2 IOVSS.t135 sg13_hv_nmos ad=0.2375p pd=1.63u as=0.2375p ps=1.63u w=1.25u l=1u
X212 ldo_1v2_a_0.VDD.t93 ldo_1v2_a_0.VDD.t90 ldo_1v2_a_0.VDD.t92 ldo_1v2_a_0.VDD.t91 sg13_hv_pmos ad=1.7p pd=10.68u as=0 ps=0 w=5u l=1u
X213 VDD_1v5.t7 ldo_1v5_y_0.second_stage_1v5_0.dmv.t5 ldo_1v2_a_0.VDD.t1 ldo_1v2_a_0.VDD.t0 sg13_hv_pmos ad=2.5327p pd=13.71u as=2.5327p ps=13.71u w=13.33u l=1u
X214 ldo_1v2_a_0.VDD.t6 ldo_1v5_y_0.second_stage_1v5_0.dmv.t5 VDD_1v5.t6 ldo_1v2_a_0.VDD.t0 sg13_hv_pmos ad=2.5327p pd=13.71u as=2.5327p ps=13.71u w=13.33u l=1u
X215 a_14219_1480.t1 a_12713_1344.t1 IOVSS.t148 rhigh l=3.58u w=0.5u
X216 IOVSS.t222 IOVSS.t223 IOVSS.t29 rhigh l=0.96u w=0.5u
X217 a_12893_15894.t0 a_13360_15724.t1 IOVSS.t9 rppd l=1.905u w=0.5u
X218 a_12893_11222.t0 a_13360_11392.t0 IOVSS.t9 rppd l=1.905u w=0.5u
X219 ldo_1v2_a_0.VDD.t146 ldo_1v5_y_0.first_stage$1_0/diff_pairs$1_0.dmv.t0 ldo_1v5_y_0.second_stage_1v5_0.dmv.t4 ldo_1v2_a_0.VDD.t91 sg13_hv_pmos ad=1.7p pd=10.68u as=1.7p ps=10.68u w=5u l=1u
X220 a_12713_2096.t0 a_12713_1788.t0 IOVSS.t38 rhigh l=3.58u w=0.5u
X221 a_14219_2404.t1 a_14219_2096.t1 IOVSS.t148 rhigh l=3.58u w=0.5u
X222 bgr_0.v8t.t2 bgr_0.v8t.t1 IOVSS.t42 IOVSS.t41 sg13_hv_nmos ad=1.0625p pd=6.93u as=1.0625p ps=6.93u w=3.125u l=1.5u
X223 bgr_0.opm_bgr_0.bgr_second_stage_0.bgr_second_stage_al_0.Vbias.t6 bgr_0.opm_bgr_0.bgr_second_stage_0.bgr_second_stage_al_0.Vbias.t4 ldo_1v2_a_0.VDD.t59 ldo_1v2_a_0.VDD.t31 sg13_hv_pmos ad=0.95p pd=5.38u as=1.7p ps=10.68u w=5u l=2u
X224 ldo_1v2_a_0.VDD.t72 bgr_0.out_opm.t9 bgr_0.vp.t3 ldo_1v2_a_0.VDD.t33 sg13_hv_pmos ad=1.14p pd=6.38u as=1.14p ps=6.38u w=6u l=2u
X225 IOVSS.t205 IOVSS.t206 IOVSS.t0 rppd l=1.905u w=0.5u
X226 IOVSS.t73 IOVSS.t70 IOVSS.t72 IOVSS.t71 sg13_hv_nmos ad=3.4p pd=20.68u as=0 ps=0 w=10u l=2u
X227 a_14982_13218.t0 a_13360_12050.t0 IOVSS.t8 rppd l=2.2u w=0.5u
X228 ldo_1v2_a_0.VDD.t145 ldo_1v5_y_0.first_stage$1_0/diff_pairs$1_0.dmv.t0 ldo_1v5_y_0.first_stage$1_0/diff_pairs$1_0.dmv.t1 ldo_1v2_a_0.VDD.t91 sg13_hv_pmos ad=1.7p pd=10.68u as=1.7p ps=10.68u w=5u l=1u
X229 bgr_0.inv_out.t0 VBG_1V.t8 IOVSS.t134 IOVSS.t133 sg13_hv_nmos ad=0.2375p pd=1.63u as=0.425p ps=3.18u w=1.25u l=1u
X230 a_14721_2096.t1 a_14721_1788.t1 IOVSS.t182 rhigh l=3.58u w=0.5u
X231 a_13360_13218.t2 a_15508_14386.t1 IOVSS.t20 rppd l=1.905u w=0.5u
X232 IOVSS.t220 IOVSS.t221 IOVSS.t35 rhigh l=0.96u w=0.5u
X233 IOVSS.t13 bgr_0.opm_bgr_0.bgr_second_stage_0.bgr_second_stage_cs_0.Vos1.t5 bgr_0.out_opm.t0 IOVSS.t12 sg13_hv_nmos ad=2.975p pd=18.18u as=1.6625p ps=9.13u w=8.75u l=6u
X234 ldo_1v2_a_0.VDD.t34 VBG_1V.t9 bgr_0.inv_out.t4 ldo_1v2_a_0.VDD.t33 sg13_hv_pmos ad=0.17p pd=1.68u as=0.17p ps=1.68u w=0.5u l=10u
X235 IOVSS.t159 IOVSS.t160 IOVSS.t0 rppd l=1.905u w=0.5u
X236 ldo_1v2_a_0.VDD.t140 bgr_0.opm_bgr_0.bgr_second_stage_0.bgr_second_stage_al_0.Vbias.t10 bgr_0.out_opm.t4 ldo_1v2_a_0.VDD.t60 sg13_hv_pmos ad=1.425p pd=7.88u as=1.425p ps=7.88u w=7.5u l=1.5u
X237 a_15041_12560.t1 a_15508_12390.t0 IOVSS.t20 rppd l=1.905u w=0.5u
X238 IOVSS.t169 IOVSS.t170 IOVSS.t0 rppd l=1.905u w=0.5u
X239 IOVSS.t69 IOVSS.t67 IOVSS.t68 IOVSS.t58 sg13_hv_nmos ad=0.85p pd=5.68u as=0 ps=0 w=2.5u l=0.5u
X240 a_14982_13898.t0 a_13360_15236.t0 IOVSS.t8 rppd l=2.2u w=0.5u
X241 a_6604_1101.t0 a_6428_228.t1 IOVSS.t216 rhigh l=3.935u w=0.52u
X242 IOVSS.t180 IOVSS.t181 IOVSS.t29 rhigh l=0.96u w=0.5u
X243 a_14219_1788.t0 a_14219_1480.t0 IOVSS.t148 rhigh l=3.58u w=0.5u
X244 bgr_0.out_opm.t4 bgr_0.opm_bgr_0.bgr_second_stage_0.bgr_second_stage_al_0.Vbias.t10 ldo_1v2_a_0.VDD.t139 ldo_1v2_a_0.VDD.t60 sg13_hv_pmos ad=1.425p pd=7.88u as=1.425p ps=7.88u w=7.5u l=1.5u
X245 a_12834_14726.t1 a_13360_14556.t1 IOVSS.t147 rppd l=2.2u w=0.5u
X246 ldo_1v2_a_0.first_stage_0/bias_cur_0.d_t.t4 VBG_1V.t10 ldo_1v2_a_0.first_stage_0/diff_pairs_0.dmr.t2 IOVSS.t142 sg13_hv_nmos ad=3.4p pd=20.68u as=3.4p ps=20.68u w=10u l=2u
X247 IOVSS.t212 IOVSS.t213 IOVSS.t20 rppd l=1.905u w=0.5u
X248 ldo_1v5_y_0.second_stage_1v5_0.vfb.t0 a_14219_2404.t0 IOVSS.t148 rhigh l=3.58u w=0.5u
X249 ldo_1v2_a_0.VDD.t42 ldo_1v2_a_0.first_stage_0/diff_pairs_0.dmr.t5 VDD_1v2.t5 ldo_1v2_a_0.VDD.t35 sg13_hv_pmos ad=5.95p pd=35.68u as=3.325p ps=17.88u w=17.5u l=1u
X250 a_13215_1480.t0 a_12211_1344.t0 IOVSS.t7 rhigh l=3.58u w=0.5u
X251 VDD_1v5.t5 ldo_1v5_y_0.second_stage_1v5_0.dmv.t5 ldo_1v2_a_0.VDD.t9 ldo_1v2_a_0.VDD.t0 sg13_hv_pmos ad=4.5322p pd=27.34u as=2.5327p ps=13.71u w=13.33u l=1u
X252 a_12834_12730.t0 bgr_0.vp.t0 IOVSS.t147 rppd l=2.2u w=0.5u
X253 a_13215_2404.t1 a_13215_2096.t1 IOVSS.t7 rhigh l=3.58u w=0.5u
X254 bgr_0.opm_bgr_0.bgr_first_stage_0/bgr_diff_0.ref.t4 bgr_0.vn.t4 bgr_0.opm_bgr_0.bgr_first_stage_0/bgr_bias_0.VbD.t0 ldo_1v2_a_0.VDD.t32 sg13_hv_pmos ad=1.36p pd=8.68u as=1.36p ps=8.68u w=4u l=1u
X255 a_13967_15066.t1 a_14434_14896.t0 IOVSS.t0 rppd l=1.905u w=0.5u
X256 IOVSS.t242 IOVSS.t243 IOVSS.t20 rppd l=1.905u w=0.5u
X257 IOVSS.t2 IOVSS.t3 IOVSS.t1 rhigh l=3.58u w=0.5u
X258 bgr_0.opm_bgr_0.bgr_second_stage_0.bgr_second_stage_al_0.Vbias.t1 bgr_0.opm_bgr_0.bgr_second_stage_0.bgr_second_stage_al_0.Vbias.t0 IOVSS.t176 IOVSS.t175 sg13_hv_nmos ad=0.6327p pd=3.71u as=0.6327p ps=3.71u w=3.33u l=6u
X259 ldo_1v5_y_0.first_stage$1_0/bias_cur$1_0.d_t.t2 ldo_1v5_y_0.first_stage$1_0/bias_cur$1_0.i_ref.t1 IOVSS.t104 IOVSS.t240 sg13_hv_nmos ad=0.855p pd=4.88u as=0.855p ps=4.88u w=4.5u l=2u
X260 IOVSS.t187 IOVSS.t188 IOVSS.t1 rhigh l=3.58u w=0.5u
X261 a_12893_15554.t0 a_13360_11732.t0 IOVSS.t9 rppd l=1.905u w=0.5u
X262 ldo_1v5_y_0.first_stage$1_0/diff_pairs$1_0.dmv.t3 ldo_1v5_y_0.second_stage_1v5_0.vfb.t2 ldo_1v5_y_0.first_stage$1_0/bias_cur$1_0.d_t.t1 IOVSS.t161 sg13_hv_nmos ad=3.4p pd=20.68u as=3.4p ps=20.68u w=10u l=2u
X263 ldo_1v2_a_0.VDD.t89 ldo_1v2_a_0.VDD.t87 ldo_1v2_a_0.VDD.t88 ldo_1v2_a_0.VDD.t33 sg13_hv_pmos ad=1.1203p pd=7.27u as=0 ps=0 w=3.295u l=0.5u
X264 a_12893_10882.t1 a_13360_11052.t1 IOVSS.t9 rppd l=1.905u w=0.5u
X265 ldo_1v2_a_0.VDD.t151 ldo_1v2_a_0.first_stage_0/diff_pairs_0.dmv.t1 ldo_1v2_a_0.first_stage_0/diff_pairs_0.dmr.t3 ldo_1v2_a_0.VDD.t105 sg13_hv_pmos ad=1.7p pd=10.68u as=1.7p ps=10.68u w=5u l=1u
X266 ldo_1v5_y_0.first_stage$1_0/bias_cur$1_0.d_t.t4 VBG_1V.t11 ldo_1v5_y_0.second_stage_1v5_0.dmv.t1 IOVSS.t162 sg13_hv_nmos ad=3.4p pd=20.68u as=3.4p ps=20.68u w=10u l=2u
X267 a_14219_2096.t0 a_14219_1788.t1 IOVSS.t148 rhigh l=3.58u w=0.5u