* NGSPICE file created from adc_top_analog.ext - technology: ihp-sg13g2

.subckt adc_top_analog VSS VDD VBIAS RAMP_EN RAMP_REF RAMP_RESET SEL_CAL VCAL SEL_MEAS
+ VMEAS CMP_OUTPUT VRAMP
X0 VDD.t14 VBIAS.t8 ota_lv_gmid_comparator_0.ota_slow_gmid_common_0/ota_slow_gmid_pairs_0.tail.t0 VDD.t1 sg13_lv_pmos ad=0.19p pd=1.38u as=0.34p ps=2.68u w=1u l=0.5u
X1 VRAMP.t9 RAMP_RESET.t0 VSS.t154 VSS.t158 sg13_lv_nmos ad=0.627p pd=3.68u as=0.627p ps=3.68u w=3.3u l=0.13u
X2 ramp_generator_0.ramp_generator_input_select_0.v_cmp.t4 VMEAS.t0 SEL_MEAS.t4 VSS.t107 sg13_lv_nmos ad=0.19p pd=1.38u as=0.19p ps=1.38u w=1u l=0.13u
X3 VCAL.t5 SEL_CAL.t0 ramp_generator_0.ramp_generator_input_select_0.v_cmp.t17 VSS.t132 sg13_lv_nmos ad=0.19p pd=1.38u as=0.19p ps=1.38u w=1u l=0.13u
X4 VSS.t138 RAMP_RESET.t0 VRAMP.t13 VSS.t157 sg13_lv_nmos ad=0.627p pd=3.68u as=0.627p ps=3.68u w=3.3u l=0.13u
X5 ota_lv_gmid_comparator_0.ota_slow_gmid_ctrl_buff_1.y.t0 ota_lv_gmid_comparator_0.ota_slow_gmid_ctrl_buff_1.ota_slow_gmid_ctrl_inv_0.x.t2 VSS.t162 VSS.t161 sg13_lv_nmos ad=0.68p pd=4.68u as=0.68p ps=4.68u w=2u l=0.13u
X6 ota_lv_gmid_comparator_0.ota_slow_gmid_ctrl_buff_1.y.t1 ota_lv_gmid_comparator_0.ota_slow_gmid_ctrl_buff_1.ota_slow_gmid_ctrl_inv_0.x.t2 VDD.t233 VDD.t88 sg13_lv_pmos ad=0.68p pd=4.68u as=0.68p ps=4.68u w=2u l=0.13u
X7 ramp_generator_0.ramp_generator_nmos_mirror_0.pmos_ref.t9 RAMP_EN.t0 VDD.t161 VDD.t40 sg13_lv_pmos ad=0.19p pd=1.38u as=0.19p ps=1.38u w=1u l=0.13u
X8 a_n2237_2812.t0 VDD.t21 VSS.t61 rhigh l=2.5u w=0.5u
X9 ramp_generator_0.ramp_generator_nmos_mirror_0.pmos_ref.t8 RAMP_EN.t0 VDD.t159 VDD.t133 sg13_lv_pmos ad=0.19p pd=1.38u as=0.19p ps=1.38u w=1u l=0.13u
X10 ota_lv_gmid_comparator_0.ota_slow_gmid_mirror_0.vref.t1 VRAMP.t14 ota_lv_gmid_comparator_0.ota_slow_gmid_common_0/ota_slow_gmid_pairs_0.tail.t3 VDD.t32 sg13_lv_pmos ad=0.85p pd=5.68u as=0.475p ps=2.88u w=2.5u l=5u
X11 a_n2237_2812.t1 VDD.t22 VSS.t62 rhigh l=2.5u w=0.5u
X12 VRAMP.t8 RAMP_RESET.t1 VSS.t151 VSS.t156 sg13_lv_nmos ad=0.627p pd=3.68u as=0.627p ps=3.68u w=3.3u l=0.13u
X13 VDD.t91 ota_lv_gmid_comparator_0.ota_slow_gmid_ctrl_buff_1.y.t2 VBIAS.t7 VDD.t88 sg13_lv_pmos ad=0.27075p pd=1.805u as=0.4845p ps=3.53u w=1.425u l=0.13u
X14 VBIAS.t5 ota_lv_gmid_comparator_0.ota_slow_gmid_ctrl_buff_1.y.t2 VDD.t101 VDD.t88 sg13_lv_pmos ad=0.27075p pd=1.805u as=0.27075p ps=1.805u w=1.425u l=0.13u
X15 VCAL.t3 SEL_CAL.t0 ramp_generator_0.ramp_generator_input_select_0.v_cmp.t20 VSS.t131 sg13_lv_nmos ad=0.19p pd=1.38u as=0.19p ps=1.38u w=1u l=0.13u
X16 VDD.t229 VDD.t198 VDD.t228 VDD.t1 sg13_lv_pmos ad=0.34p pd=2.68u as=0 ps=0 w=1u l=0.5u
X17 ota_lv_gmid_comparator_0.ota_slow_gmid_mirror_0.vout1.t7 ota_lv_gmid_comparator_0.ota_slow_gmid_ctrl_buff_1.y.t3 VDD.t111 VDD.t28 sg13_lv_pmos ad=0.27075p pd=1.805u as=0.27075p ps=1.805u w=1.425u l=0.13u
X18 a_n786_n1161.t2 ota_lv_gmid_comparator_0.ota_slow_gmid_ctrl_buff_0.x.t6 VDD.t74 VSS.t75 sg13_lv_nmos ad=55.85f pd=0.74u as=55.85f ps=0.74u w=0.155u l=0.5u
X19 VDD.t77 ota_lv_gmid_comparator_0.ota_slow_gmid_ctrl_buff_0.x.t6 a_n786_n1161.t1 VSS.t76 sg13_lv_nmos ad=0.10085p pd=1.34u as=55.85f ps=0.74u w=0.155u l=0.5u
X20 SEL_MEAS.t4 VMEAS.t0 ramp_generator_0.ramp_generator_input_select_0.v_cmp.t9 VSS.t106 sg13_lv_nmos ad=0.19p pd=1.38u as=0.19p ps=1.38u w=1u l=0.13u
X21 VDD.t196 VDD.t195 VDD.t196 VDD.t28 sg13_lv_pmos ad=0.475p pd=2.88u as=0 ps=0 w=2.5u l=2u
X22 a_n786_n1161.t8 ota_lv_gmid_comparator_0.ota_slow_gmid_ctrl_buff_0.x.t6 VDD.t75 VSS.t82 sg13_lv_nmos ad=55.85f pd=0.74u as=0.10085p ps=1.34u w=0.155u l=0.5u
X23 VDD.t35 VDD.t36 VSS.t72 rhigh l=3u w=0.5u
X24 ramp_generator_0.ramp_generator_nmos_mirror_0.pmos_ref.t15 RAMP_EN.t0 VDD.t142 VDD.t169 sg13_lv_pmos ad=0.19p pd=1.38u as=0.19p ps=1.38u w=1u l=0.13u
X25 SEL_MEAS.t2 VMEAS.t0 ramp_generator_0.ramp_generator_input_select_0.v_cmp.t8 VSS.t105 sg13_lv_nmos ad=0.19p pd=1.38u as=0.19p ps=1.38u w=1u l=0.13u
X26 VDD.t132 RAMP_EN.t0 ramp_generator_0.ramp_generator_nmos_mirror_0.pmos_ref.t19 VDD.t168 sg13_lv_pmos ad=0.19p pd=1.38u as=0.19p ps=1.38u w=1u l=0.13u
X27 VDD.t70 ramp_generator_0.ramp_generator_nmos_mirror_0.pmos_ref.t22 ramp_generator_0.ramp_generator_nmos_mirror_0.pmos_ref.t52 VDD.t42 sg13_lv_pmos ad=0.1005p pd=1.34u as=0.1005p ps=1.34u w=0.15u l=10u
X28 a_n786_n1161.t9 ota_lv_gmid_comparator_0.ota_slow_gmid_ctrl_buff_0.x.t6 VDD.t72 VSS.t73 sg13_lv_nmos ad=55.85f pd=0.74u as=55.85f ps=0.74u w=0.155u l=0.5u
X29 ramp_generator_0.ramp_generator_nmos_mirror_0.pmos_ref.t6 RAMP_EN.t0 VDD.t145 VDD.t167 sg13_lv_pmos ad=0.19p pd=1.38u as=0.19p ps=1.38u w=1u l=0.13u
X30 VDD.t9 a_n7165_947# VDD.t8 VDD.t7 sg13_lv_pmos ad=0.1005p pd=1.34u as=0 ps=0 w=0.15u l=5u
X31 ota_lv_gmid_comparator_0.ota_slow_gmid_ctrl_buff_0.ota_slow_gmid_ctrl_inv_0.x.t0 ota_lv_gmid_comparator_0.ota_slow_gmid_ctrl_buff_0.x.t7 VSS.t65 VSS.t64 sg13_lv_nmos ad=0.68p pd=4.68u as=0.68p ps=4.68u w=2u l=0.13u
X32 ramp_generator_0.ramp_generator_nmos_mirror_0.pmos_ref.t51 ramp_generator_0.ramp_generator_nmos_mirror_0.pmos_ref.t22 VDD.t69 VDD.t40 sg13_lv_pmos ad=0.1005p pd=1.34u as=0.1005p ps=1.34u w=0.15u l=10u
X33 ramp_generator_0.ramp_generator_nmos_mirror_0.pmos_ref.t50 ramp_generator_0.ramp_generator_nmos_mirror_0.pmos_ref.t22 VDD.t68 VDD.t10 sg13_lv_pmos ad=0.1005p pd=1.34u as=0.1005p ps=1.34u w=0.15u l=10u
X34 VDD.t83 a_n7165_1683# VDD.t82 VDD.t7 sg13_lv_pmos ad=0.1005p pd=1.34u as=0 ps=0 w=0.15u l=5u
X35 ramp_generator_0.ramp_generator_nmos_mirror_0.pmos_ref.t49 ramp_generator_0.ramp_generator_nmos_mirror_0.pmos_ref.t22 VDD.t67 VDD.t10 sg13_lv_pmos ad=0.1005p pd=1.34u as=0.1005p ps=1.34u w=0.15u l=10u
X36 RAMP_REF.t7 RAMP_REF.t3 VSS.t71 VSS.t109 sg13_lv_nmos ad=0.102p pd=1.28u as=57f ps=0.68u w=0.3u l=10u
X37 ramp_generator_0.ramp_generator_nmos_mirror_0.pmos_ref.t48 ramp_generator_0.ramp_generator_nmos_mirror_0.pmos_ref.t22 VDD.t66 VDD.t10 sg13_lv_pmos ad=0.1005p pd=1.34u as=0.1005p ps=1.34u w=0.15u l=10u
X38 VDD.t34 a_n17365_947# VDD.t33 VDD.t10 sg13_lv_pmos ad=0.1005p pd=1.34u as=0 ps=0 w=0.15u l=5u
X39 VDD.t114 ota_lv_gmid_comparator_0.ota_slow_gmid_ctrl_buff_1.y.t3 ota_lv_gmid_comparator_0.ota_slow_gmid_mirror_0.vout1.t7 VDD.t28 sg13_lv_pmos ad=0.27075p pd=1.805u as=0.27075p ps=1.805u w=1.425u l=0.13u
X40 VDD.t101 ota_lv_gmid_comparator_0.ota_slow_gmid_ctrl_buff_1.y.t2 VBIAS.t4 VDD.t88 sg13_lv_pmos ad=0.27075p pd=1.805u as=0.27075p ps=1.805u w=1.425u l=0.13u
X41 ota_lv_gmid_comparator_0.ota_slow_gmid_mirror_0.vout1.t5 ota_lv_gmid_comparator_0.ota_slow_gmid_ctrl_buff_1.y.t3 VDD.t115 VDD.t28 sg13_lv_pmos ad=0.27075p pd=1.805u as=0.4845p ps=3.53u w=1.425u l=0.13u
X42 VCAL.t4 SEL_CAL.t0 ramp_generator_0.ramp_generator_input_select_0.v_cmp.t16 VSS.t130 sg13_lv_nmos ad=0.19p pd=1.38u as=0.34p ps=2.68u w=1u l=0.13u
X43 ota_lv_gmid_comparator_0.ota_slow_gmid_mirror_0.vout1.t6 ota_lv_gmid_comparator_0.ota_slow_gmid_ctrl_buff_1.y.t3 VDD.t114 VDD.t28 sg13_lv_pmos ad=0.4845p pd=3.53u as=0.27075p ps=1.805u w=1.425u l=0.13u
X44 VBIAS.t4 ota_lv_gmid_comparator_0.ota_slow_gmid_ctrl_buff_1.y.t2 VDD.t92 VDD.t88 sg13_lv_pmos ad=0.27075p pd=1.805u as=0.27075p ps=1.805u w=1.425u l=0.13u
X45 VDD.t112 ota_lv_gmid_comparator_0.ota_slow_gmid_ctrl_buff_1.y.t3 ota_lv_gmid_comparator_0.ota_slow_gmid_mirror_0.vout1.t5 VDD.t28 sg13_lv_pmos ad=0.27075p pd=1.805u as=0.27075p ps=1.805u w=1.425u l=0.13u
X46 ota_lv_gmid_comparator_0.ota_slow_gmid_common_0/ota_slow_gmid_pairs_0.tail.t1 VBIAS.t8 VDD.t16 VDD.t1 sg13_lv_pmos ad=0.34p pd=2.68u as=0.19p ps=1.38u w=1u l=0.5u
X47 ramp_generator_0.ramp_generator_nmos_mirror_0.pmos_ref.t4 RAMP_EN.t0 VDD.t154 VDD.t126 sg13_lv_pmos ad=0.19p pd=1.38u as=0.19p ps=1.38u w=1u l=0.13u
X48 VDD.t125 RAMP_EN.t0 ramp_generator_0.ramp_generator_nmos_mirror_0.pmos_ref.t18 VDD.t165 sg13_lv_pmos ad=0.19p pd=1.38u as=0.19p ps=1.38u w=1u l=0.13u
X49 VDD.t74 ota_lv_gmid_comparator_0.ota_slow_gmid_ctrl_buff_0.x.t6 a_n786_n1161.t7 VSS.t78 sg13_lv_nmos ad=55.85f pd=0.74u as=55.85f ps=0.74u w=0.155u l=0.5u
X50 ota_lv_gmid_comparator_0.ota_slow_gmid_common_0/ota_slow_gmid_pairs_0.tail.t3 ramp_generator_0.ramp_generator_input_select_0.v_cmp.t21 ota_lv_gmid_comparator_0.ota_slow_gmid_mirror_0.vota.t1 VDD.t27 sg13_lv_pmos ad=0.475p pd=2.88u as=0.85p ps=5.68u w=2.5u l=5u
X51 VDD.t71 ota_lv_gmid_comparator_0.ota_slow_gmid_ctrl_buff_0.x.t6 a_n786_n1161.t9 VSS.t74 sg13_lv_nmos ad=55.85f pd=0.74u as=55.85f ps=0.74u w=0.155u l=0.5u
X52 SEL_MEAS.t1 VMEAS.t0 ramp_generator_0.ramp_generator_input_select_0.v_cmp.t6 VSS.t104 sg13_lv_nmos ad=0.19p pd=1.38u as=0.19p ps=1.38u w=1u l=0.13u
X53 VDD.t224 VDD.t206 VDD.t205 VDD.t88 sg13_lv_pmos ad=0.85p pd=5.68u as=0 ps=0 w=2.5u l=2u
X54 SEL_MEAS.t7 VMEAS.t0 ramp_generator_0.ramp_generator_input_select_0.v_cmp.t5 VSS.t103 sg13_lv_nmos ad=0.19p pd=1.38u as=0.19p ps=1.38u w=1u l=0.13u
X55 ramp_generator_0.ramp_generator_input_select_0.v_cmp.t18 SEL_CAL.t0 VCAL.t9 VSS.t129 sg13_lv_nmos ad=0.19p pd=1.38u as=0.19p ps=1.38u w=1u l=0.13u
X56 ramp_generator_0.ramp_generator_nmos_mirror_0.pmos_ref.t47 ramp_generator_0.ramp_generator_nmos_mirror_0.pmos_ref.t22 VDD.t65 VDD.t40 sg13_lv_pmos ad=0.1005p pd=1.34u as=0.1005p ps=1.34u w=0.15u l=10u
X57 VDD.t207 VDD.t204 VDD.t207 VDD.t88 sg13_lv_pmos ad=0.475p pd=2.88u as=0 ps=0 w=2.5u l=2u
X58 ota_lv_gmid_comparator_0.ota_slow_gmid_mirror_0.vout1.t4 ota_lv_gmid_comparator_0.ota_slow_gmid_ctrl_buff_1.y.t3 VDD.t112 VDD.t28 sg13_lv_pmos ad=0.27075p pd=1.805u as=0.27075p ps=1.805u w=1.425u l=0.13u
X59 ramp_generator_0.ramp_generator_input_select_0.v_cmp.t13 SEL_CAL.t0 VCAL.t8 VSS.t128 sg13_lv_nmos ad=0.19p pd=1.38u as=0.19p ps=1.38u w=1u l=0.13u
X60 a_n786_n1161.t10 ota_lv_gmid_comparator_0.ota_slow_gmid_mirror_0.vout1.t14 ota_lv_gmid_comparator_0.ota_slow_gmid_ctrl_buff_0.x.t1 VSS.t60 sg13_lv_nmos ad=0.38p pd=2.38u as=0.38p ps=2.38u w=2u l=0.13u
X61 VDD.t73 ota_lv_gmid_comparator_0.ota_slow_gmid_ctrl_buff_0.x.t6 a_n786_n1161.t5 VSS.t77 sg13_lv_nmos ad=55.85f pd=0.74u as=55.85f ps=0.74u w=0.155u l=0.5u
X62 VDD.t5 VDD.t6 VSS.t3 rhigh l=3u w=0.5u
X63 a_n586_691.t4 ota_lv_gmid_comparator_0.ota_slow_gmid_mirror_0.vout1.t14 ota_lv_gmid_comparator_0.ota_slow_gmid_ctrl_buff_0.x.t4 VDD.t1 sg13_lv_pmos ad=0.2375p pd=1.63u as=0.2375p ps=1.63u w=1.25u l=0.13u
X64 VDD.t140 RAMP_EN.t0 ramp_generator_0.ramp_generator_nmos_mirror_0.pmos_ref.t17 VDD.t164 sg13_lv_pmos ad=0.19p pd=1.38u as=0.19p ps=1.38u w=1u l=0.13u
X65 ramp_generator_0.ramp_generator_nmos_mirror_0.pmos_ref.t1 RAMP_EN.t0 VDD.t150 VDD.t163 sg13_lv_pmos ad=0.19p pd=1.38u as=0.19p ps=1.38u w=1u l=0.13u
X66 VDD.t162 RAMP_EN.t0 ramp_generator_0.ramp_generator_nmos_mirror_0.pmos_ref.t11 VDD.t138 sg13_lv_pmos ad=0.34p pd=2.68u as=0.19p ps=1.38u w=1u l=0.13u
X67 VSS.t142 RAMP_RESET.t1 VRAMP.t11 VSS.t155 sg13_lv_nmos ad=0.627p pd=3.68u as=0.627p ps=3.68u w=3.3u l=0.13u
X68 VDD.t64 ramp_generator_0.ramp_generator_nmos_mirror_0.pmos_ref.t22 ramp_generator_0.ramp_generator_nmos_mirror_0.pmos_ref.t46 VDD.t42 sg13_lv_pmos ad=0.1005p pd=1.34u as=0.1005p ps=1.34u w=0.15u l=10u
X69 VDD.t63 ramp_generator_0.ramp_generator_nmos_mirror_0.pmos_ref.t22 ramp_generator_0.ramp_generator_nmos_mirror_0.pmos_ref.t45 VDD.t7 sg13_lv_pmos ad=0.1005p pd=1.34u as=0.1005p ps=1.34u w=0.15u l=10u
X70 VDD.t111 ota_lv_gmid_comparator_0.ota_slow_gmid_ctrl_buff_1.y.t3 ota_lv_gmid_comparator_0.ota_slow_gmid_mirror_0.vout1.t4 VDD.t28 sg13_lv_pmos ad=0.27075p pd=1.805u as=0.27075p ps=1.805u w=1.425u l=0.13u
X71 VSS.t154 RAMP_RESET.t0 VRAMP.t10 VSS.t153 sg13_lv_nmos ad=0.627p pd=3.68u as=0.627p ps=3.68u w=3.3u l=0.13u
X72 VRAMP.t13 RAMP_RESET.t0 VSS.t147 VSS.t152 sg13_lv_nmos ad=0.627p pd=3.68u as=0.627p ps=3.68u w=3.3u l=0.13u
X73 VDD.t161 RAMP_EN.t0 ramp_generator_0.ramp_generator_nmos_mirror_0.pmos_ref.t10 VDD.t160 sg13_lv_pmos ad=0.19p pd=1.38u as=0.19p ps=1.38u w=1u l=0.13u
X74 VDD.t159 RAMP_EN.t0 ramp_generator_0.ramp_generator_nmos_mirror_0.pmos_ref.t16 VDD.t158 sg13_lv_pmos ad=0.19p pd=1.38u as=0.19p ps=1.38u w=1u l=0.13u
X75 VDD.t62 ramp_generator_0.ramp_generator_nmos_mirror_0.pmos_ref.t22 ramp_generator_0.ramp_generator_nmos_mirror_0.pmos_ref.t44 VDD.t7 sg13_lv_pmos ad=0.1005p pd=1.34u as=0.1005p ps=1.34u w=0.15u l=10u
X76 VSS.t55 VSS.t16 VSS.t54 VSS.t17 sg13_lv_nmos ad=0.102p pd=1.28u as=0 ps=0 w=0.3u l=10u
X77 VSS.t84 ota_lv_gmid_comparator_0.ota_slow_gmid_mirror_0.vota.t4 ota_lv_gmid_comparator_0.ota_slow_gmid_mirror_0.vout1.t11 VSS.t85 sg13_lv_nmos ad=95f pd=0.88u as=0.17p ps=1.68u w=0.5u l=10u
X78 VDD.t93 ota_lv_gmid_comparator_0.ota_slow_gmid_ctrl_buff_1.y.t2 VBIAS.t1 VDD.t88 sg13_lv_pmos ad=0.27075p pd=1.805u as=0.27075p ps=1.805u w=1.425u l=0.13u
X79 VSS.t1 ota_lv_gmid_comparator_0.ota_slow_gmid_ctrl_buff_0.x.t8 a_n586_691.t1 VDD.t4 sg13_lv_pmos ad=95f pd=0.88u as=95f ps=0.88u w=0.5u l=1u
X80 VSS.t151 RAMP_RESET.t1 VRAMP.t12 VSS.t150 sg13_lv_nmos ad=0.627p pd=3.68u as=1.122p ps=7.28u w=3.3u l=0.13u
X81 VSS.t52 VSS.t4 VSS.t51 VSS.t5 sg13_lv_nmos ad=0.102p pd=1.28u as=0 ps=0 w=0.3u l=10u
X82 VSS.t71 RAMP_REF.t0 RAMP_REF.t6 VSS.t67 sg13_lv_nmos ad=57f pd=0.68u as=0.102p ps=1.28u w=0.3u l=10u
X83 ota_lv_gmid_comparator_0.ota_slow_gmid_mirror_0.vout1.t10 ota_lv_gmid_comparator_0.ota_slow_gmid_mirror_0.vota.t4 VSS.t84 VSS.t83 sg13_lv_nmos ad=0.17p pd=1.68u as=95f ps=0.88u w=0.5u l=10u
X84 SEL_MEAS.t6 VMEAS.t0 ramp_generator_0.ramp_generator_input_select_0.v_cmp.t10 VSS.t102 sg13_lv_nmos ad=0.19p pd=1.38u as=0.19p ps=1.38u w=1u l=0.13u
X85 ramp_generator_0.ramp_generator_input_select_0.v_cmp.t17 SEL_CAL.t0 VCAL.t7 VSS.t127 sg13_lv_nmos ad=0.19p pd=1.38u as=0.19p ps=1.38u w=1u l=0.13u
X86 VDD.t23 VDD.t24 VSS.t63 rhigh l=3u w=0.5u
X87 ramp_generator_0.ramp_generator_nmos_mirror_0.pmos_ref.t19 RAMP_EN.t0 VDD.t147 VDD.t146 sg13_lv_pmos ad=0.19p pd=1.38u as=0.19p ps=1.38u w=1u l=0.13u
X88 VDD.t231 a_n17365_1131# VDD.t230 VDD.t10 sg13_lv_pmos ad=0.1005p pd=1.34u as=0 ps=0 w=0.15u l=5u
X89 ramp_generator_0.ramp_generator_nmos_mirror_0.pmos_ref.t43 ramp_generator_0.ramp_generator_nmos_mirror_0.pmos_ref.t22 VDD.t61 VDD.t10 sg13_lv_pmos ad=0.1005p pd=1.34u as=0.1005p ps=1.34u w=0.15u l=10u
X90 CMP_OUTPUT.t0 ota_lv_gmid_comparator_0.ota_slow_gmid_ctrl_buff_0.ota_slow_gmid_ctrl_inv_0.x.t2 VSS.t160 VSS.t159 sg13_lv_nmos ad=0.68p pd=4.68u as=0.68p ps=4.68u w=2u l=0.13u
X91 VDD.t85 a_n17365_1499# VDD.t84 VDD.t10 sg13_lv_pmos ad=0.1005p pd=1.34u as=0 ps=0 w=0.15u l=5u
X92 VSS.t169 VRAMP.t1 cap_cmim l=40u w=40u
X93 VDD.t12 a_n17365_1867# VDD.t11 VDD.t10 sg13_lv_pmos ad=0.1005p pd=1.34u as=0 ps=0 w=0.15u l=5u
X94 RAMP_REF.t5 RAMP_REF.t3 VSS.t69 VSS.t109 sg13_lv_nmos ad=0.102p pd=1.28u as=57f ps=0.68u w=0.3u l=10u
X95 VDD.t137 RAMP_EN.t0 ramp_generator_0.ramp_generator_nmos_mirror_0.pmos_ref.t14 VDD.t144 sg13_lv_pmos ad=0.19p pd=1.38u as=0.19p ps=1.38u w=1u l=0.13u
X96 VSS.t49 VSS.t4 VSS.t48 VSS.t5 sg13_lv_nmos ad=0.102p pd=1.28u as=0 ps=0 w=0.3u l=10u
X97 a_n786_n1161.t4 ota_lv_gmid_comparator_0.ota_slow_gmid_ctrl_buff_0.x.t6 VDD.t81 VSS.t81 sg13_lv_nmos ad=55.85f pd=0.74u as=55.85f ps=0.74u w=0.155u l=0.5u
X98 a_n786_n1161.t12 ota_lv_gmid_comparator_0.ota_slow_gmid_mirror_0.vout1.t14 ota_lv_gmid_comparator_0.ota_slow_gmid_ctrl_buff_0.x.t2 VSS.t59 sg13_lv_nmos ad=0.38p pd=2.38u as=0.38p ps=2.38u w=2u l=0.13u
X99 RAMP_REF.t4 RAMP_REF.t3 VSS.t70 VSS.t109 sg13_lv_nmos ad=0.102p pd=1.28u as=57f ps=0.68u w=0.3u l=10u
X100 VDD.t219 VDD.t192 VDD.t218 VDD.t1 sg13_lv_pmos ad=0.34p pd=2.68u as=0 ps=0 w=1u l=0.5u
X101 VBIAS.t1 ota_lv_gmid_comparator_0.ota_slow_gmid_ctrl_buff_1.y.t2 VDD.t96 VDD.t88 sg13_lv_pmos ad=0.27075p pd=1.805u as=0.27075p ps=1.805u w=1.425u l=0.13u
X102 VDD.t97 ota_lv_gmid_comparator_0.ota_slow_gmid_ctrl_buff_1.y.t2 VBIAS.t2 VDD.t88 sg13_lv_pmos ad=0.4845p pd=3.53u as=0.27075p ps=1.805u w=1.425u l=0.13u
X103 VSS.t70 RAMP_REF.t0 RAMP_REF.t2 VSS.t67 sg13_lv_nmos ad=57f pd=0.68u as=0.102p ps=1.28u w=0.3u l=10u
X104 ramp_generator_0.ramp_generator_input_select_0.v_cmp.t10 VMEAS.t0 SEL_MEAS.t5 VSS.t101 sg13_lv_nmos ad=0.19p pd=1.38u as=0.19p ps=1.38u w=1u l=0.13u
X105 ramp_generator_0.ramp_generator_input_select_0.v_cmp.t20 SEL_CAL.t0 VCAL.t6 VSS.t126 sg13_lv_nmos ad=0.19p pd=1.38u as=0.19p ps=1.38u w=1u l=0.13u
X106 ramp_generator_0.ramp_generator_input_select_0.v_cmp.t9 VMEAS.t0 SEL_MEAS.t3 VSS.t100 sg13_lv_nmos ad=0.19p pd=1.38u as=0.19p ps=1.38u w=1u l=0.13u
X107 ramp_generator_0.ramp_generator_input_select_0.v_cmp.t8 VMEAS.t0 SEL_MEAS.t9 VSS.t99 sg13_lv_nmos ad=0.19p pd=1.38u as=0.19p ps=1.38u w=1u l=0.13u
X108 ramp_generator_0.ramp_generator_nmos_mirror_0.pmos_ref.t5 RAMP_EN.t0 VDD.t121 VDD.t42 sg13_lv_pmos ad=0.19p pd=1.38u as=0.19p ps=1.38u w=1u l=0.13u
X109 ramp_generator_0.ramp_generator_nmos_mirror_0.pmos_ref.t42 ramp_generator_0.ramp_generator_nmos_mirror_0.pmos_ref.t22 VDD.t60 VDD.t40 sg13_lv_pmos ad=0.1005p pd=1.34u as=0.1005p ps=1.34u w=0.15u l=10u
X110 VCAL.t0 SEL_CAL.t0 ramp_generator_0.ramp_generator_input_select_0.v_cmp.t12 VSS.t125 sg13_lv_nmos ad=0.19p pd=1.38u as=0.19p ps=1.38u w=1u l=0.13u
X111 VDD.t154 RAMP_EN.t0 ramp_generator_0.ramp_generator_nmos_mirror_0.pmos_ref.t13 VDD.t153 sg13_lv_pmos ad=0.19p pd=1.38u as=0.19p ps=1.38u w=1u l=0.13u
X112 ramp_generator_0.ramp_generator_nmos_mirror_0.pmos_ref.t18 RAMP_EN.t0 VDD.t127 VDD.t152 sg13_lv_pmos ad=0.19p pd=1.38u as=0.19p ps=1.38u w=1u l=0.13u
X113 VDD.t26 a_n7165_1315# VDD.t25 VDD.t7 sg13_lv_pmos ad=0.1005p pd=1.34u as=0 ps=0 w=0.15u l=5u
X114 VSS.t167 ota_lv_gmid_comparator_0.ota_slow_gmid_mirror_0.vref.t2 ota_lv_gmid_comparator_0.ota_slow_gmid_mirror_0.vref.t4 VSS.t85 sg13_lv_nmos ad=95f pd=0.88u as=0.17p ps=1.68u w=0.5u l=10u
X115 VDD.t16 VBIAS.t8 ota_lv_gmid_comparator_0.ota_slow_gmid_common_0/ota_slow_gmid_tail_0.ibiasn.t1 VDD.t1 sg13_lv_pmos ad=0.19p pd=1.38u as=0.34p ps=2.68u w=1u l=0.5u
X116 VDD.t72 ota_lv_gmid_comparator_0.ota_slow_gmid_ctrl_buff_0.x.t6 a_n786_n1161.t8 VSS.t80 sg13_lv_nmos ad=55.85f pd=0.74u as=55.85f ps=0.74u w=0.155u l=0.5u
X117 VDD.t216 VDD.t195 VDD.t210 VDD.t28 sg13_lv_pmos ad=0.85p pd=5.68u as=0 ps=0 w=2.5u l=2u
X118 VDD.t96 ota_lv_gmid_comparator_0.ota_slow_gmid_ctrl_buff_1.y.t2 VBIAS.t3 VDD.t88 sg13_lv_pmos ad=0.27075p pd=1.805u as=0.4845p ps=3.53u w=1.425u l=0.13u
X119 VDD.t59 ramp_generator_0.ramp_generator_nmos_mirror_0.pmos_ref.t22 ramp_generator_0.ramp_generator_nmos_mirror_0.pmos_ref.t41 VDD.t42 sg13_lv_pmos ad=0.1005p pd=1.34u as=0.1005p ps=1.34u w=0.15u l=10u
X120 VBIAS.t2 ota_lv_gmid_comparator_0.ota_slow_gmid_ctrl_buff_1.y.t2 VDD.t94 VDD.t88 sg13_lv_pmos ad=0.27075p pd=1.805u as=0.27075p ps=1.805u w=1.425u l=0.13u
X121 ota_lv_gmid_comparator_0.ota_slow_gmid_mirror_0.vota.t3 ota_lv_gmid_comparator_0.ota_slow_gmid_mirror_0.vref.t2 VSS.t167 VSS.t83 sg13_lv_nmos ad=0.17p pd=1.68u as=95f ps=0.88u w=0.5u l=10u
X122 VSS.t165 ota_lv_gmid_comparator_0.ota_slow_gmid_mirror_0.vref.t2 ota_lv_gmid_comparator_0.ota_slow_gmid_mirror_0.vota.t2 VSS.t85 sg13_lv_nmos ad=95f pd=0.88u as=0.17p ps=1.68u w=0.5u l=10u
X123 VDD.t87 a_n7165_763# VDD.t86 VDD.t7 sg13_lv_pmos ad=0.1005p pd=1.34u as=0 ps=0 w=0.15u l=5u
X124 VDD.t213 VDD.t198 VDD.t212 VDD.t1 sg13_lv_pmos ad=0.34p pd=2.68u as=0 ps=0 w=1u l=0.5u
X125 ramp_generator_0.ramp_generator_nmos_mirror_0.pmos_ref.t17 RAMP_EN.t0 VDD.t141 VDD.t151 sg13_lv_pmos ad=0.19p pd=1.38u as=0.19p ps=1.38u w=1u l=0.13u
X126 ramp_generator_0.ramp_generator_nmos_mirror_0.pmos_ref.t40 ramp_generator_0.ramp_generator_nmos_mirror_0.pmos_ref.t22 VDD.t58 VDD.t10 sg13_lv_pmos ad=0.1005p pd=1.34u as=0.1005p ps=1.34u w=0.15u l=10u
X127 ota_lv_gmid_comparator_0.ota_slow_gmid_mirror_0.vref.t3 ota_lv_gmid_comparator_0.ota_slow_gmid_mirror_0.vref.t2 VSS.t165 VSS.t83 sg13_lv_nmos ad=0.17p pd=1.68u as=95f ps=0.88u w=0.5u l=10u
X128 VDD.t150 RAMP_EN.t0 ramp_generator_0.ramp_generator_nmos_mirror_0.pmos_ref.t12 VDD.t139 sg13_lv_pmos ad=0.19p pd=1.38u as=0.19p ps=1.38u w=1u l=0.13u
X129 VDD.t187 a_n17365_763# VDD.t186 VDD.t10 sg13_lv_pmos ad=0.1005p pd=1.34u as=0 ps=0 w=0.15u l=5u
X130 ramp_generator_0.ramp_generator_input_select_0.v_cmp.t7 VMEAS.t0 SEL_MEAS.t2 VSS.t98 sg13_lv_nmos ad=0.34p pd=2.68u as=0.19p ps=1.38u w=1u l=0.13u
X131 VRAMP.t11 RAMP_RESET.t1 VSS.t144 VSS.t149 sg13_lv_nmos ad=0.627p pd=3.68u as=0.627p ps=3.68u w=3.3u l=0.13u
X132 VDD.t94 ota_lv_gmid_comparator_0.ota_slow_gmid_ctrl_buff_1.y.t2 VBIAS.t0 VDD.t88 sg13_lv_pmos ad=0.27075p pd=1.805u as=0.27075p ps=1.805u w=1.425u l=0.13u
X133 VDD.t30 VDD.t31 VSS.t66 rhigh l=3u w=0.5u
X134 a_n786_n1161.t7 ota_lv_gmid_comparator_0.ota_slow_gmid_ctrl_buff_0.x.t6 VDD.t73 VSS.t81 sg13_lv_nmos ad=55.85f pd=0.74u as=55.85f ps=0.74u w=0.155u l=0.5u
X135 ramp_generator_0.ramp_generator_input_select_0.v_cmp.t6 VMEAS.t0 SEL_MEAS.t0 VSS.t97 sg13_lv_nmos ad=0.19p pd=1.38u as=0.19p ps=1.38u w=1u l=0.13u
X136 VBIAS.t0 ota_lv_gmid_comparator_0.ota_slow_gmid_ctrl_buff_1.y.t2 VDD.t93 VDD.t88 sg13_lv_pmos ad=0.27075p pd=1.805u as=0.27075p ps=1.805u w=1.425u l=0.13u
X137 VRAMP.t10 RAMP_RESET.t0 VSS.t140 VSS.t148 sg13_lv_nmos ad=0.627p pd=3.68u as=0.627p ps=3.68u w=3.3u l=0.13u
X138 ramp_generator_0.ramp_generator_input_select_0.v_cmp.t5 VMEAS.t0 SEL_MEAS.t8 VSS.t96 sg13_lv_nmos ad=0.19p pd=1.38u as=0.19p ps=1.38u w=1u l=0.13u
X139 VCAL.t9 SEL_CAL.t0 ramp_generator_0.ramp_generator_input_select_0.v_cmp.t15 VSS.t124 sg13_lv_nmos ad=0.19p pd=1.38u as=0.19p ps=1.38u w=1u l=0.13u
X140 ota_lv_gmid_comparator_0.ota_slow_gmid_ctrl_buff_0.x.t1 ota_lv_gmid_comparator_0.ota_slow_gmid_mirror_0.vout1.t14 a_n786_n1161.t12 VSS.t58 sg13_lv_nmos ad=0.38p pd=2.38u as=0.38p ps=2.38u w=2u l=0.13u
X141 VSS.t147 RAMP_RESET.t0 VRAMP.t9 VSS.t146 sg13_lv_nmos ad=0.627p pd=3.68u as=0.627p ps=3.68u w=3.3u l=0.13u
X142 VDD.t79 ota_lv_gmid_comparator_0.ota_slow_gmid_ctrl_buff_0.x.t6 a_n786_n1161.t6 VSS.t80 sg13_lv_nmos ad=55.85f pd=0.74u as=55.85f ps=0.74u w=0.155u l=0.5u
X143 VCAL.t8 SEL_CAL.t0 ramp_generator_0.ramp_generator_input_select_0.v_cmp.t19 VSS.t123 sg13_lv_nmos ad=0.19p pd=1.38u as=0.19p ps=1.38u w=1u l=0.13u
X144 VSS.t2 ota_lv_gmid_comparator_0.ota_slow_gmid_ctrl_buff_0.x.t8 a_n586_691.t0 VDD.t3 sg13_lv_pmos ad=0.17p pd=1.68u as=95f ps=0.88u w=0.5u l=1u
X145 a_n786_n1161.t5 ota_lv_gmid_comparator_0.ota_slow_gmid_ctrl_buff_0.x.t6 VDD.t71 VSS.t79 sg13_lv_nmos ad=55.85f pd=0.74u as=55.85f ps=0.74u w=0.155u l=0.5u
X146 ramp_generator_0.ramp_generator_nmos_mirror_0.pmos_ref.t16 RAMP_EN.t0 VDD.t135 VDD.t149 sg13_lv_pmos ad=0.19p pd=1.38u as=0.19p ps=1.38u w=1u l=0.13u
X147 VDD.t57 ramp_generator_0.ramp_generator_nmos_mirror_0.pmos_ref.t22 VRAMP.t3 VDD.t42 sg13_lv_pmos ad=0.1005p pd=1.34u as=0.1005p ps=1.34u w=0.15u l=10u
X148 ota_lv_gmid_comparator_0.ota_slow_gmid_mirror_0.vota.t0 ramp_generator_0.ramp_generator_input_select_0.v_cmp.t22 ota_lv_gmid_comparator_0.ota_slow_gmid_common_0/ota_slow_gmid_pairs_0.tail.t2 VDD.t32 sg13_lv_pmos ad=0.85p pd=5.68u as=0.475p ps=2.88u w=2.5u l=5u
X149 ramp_generator_0.ramp_generator_nmos_mirror_0.pmos_ref.t0 RAMP_EN.t0 VDD.t134 VDD.t148 sg13_lv_pmos ad=0.19p pd=1.38u as=0.19p ps=1.38u w=1u l=0.13u
X150 ramp_generator_0.ramp_generator_nmos_mirror_0.pmos_ref.t39 ramp_generator_0.ramp_generator_nmos_mirror_0.pmos_ref.t22 VDD.t56 VDD.t40 sg13_lv_pmos ad=0.1005p pd=1.34u as=0.1005p ps=1.34u w=0.15u l=10u
X151 VSS.t69 RAMP_REF.t0 ramp_generator_0.ramp_generator_nmos_mirror_0.pmos_ref.t20 VSS.t67 sg13_lv_nmos ad=57f pd=0.68u as=0.102p ps=1.28u w=0.3u l=10u
X152 a_n786_n1161.t3 ota_lv_gmid_comparator_0.ota_slow_gmid_ctrl_buff_0.x.t6 VDD.t80 VSS.t79 sg13_lv_nmos ad=55.85f pd=0.74u as=55.85f ps=0.74u w=0.155u l=0.5u
X153 VSS.t136 RAMP_RESET.t1 VRAMP.t8 VSS.t145 sg13_lv_nmos ad=0.627p pd=3.68u as=0.627p ps=3.68u w=3.3u l=0.13u
X154 VSS.t163 ota_lv_gmid_comparator_0.ota_slow_gmid_mirror_0.vota.t5 ota_lv_gmid_comparator_0.ota_slow_gmid_mirror_0.vout1.t13 VSS.t85 sg13_lv_nmos ad=95f pd=0.88u as=0.17p ps=1.68u w=0.5u l=10u
X155 SEL_MEAS.t8 VMEAS.t0 ramp_generator_0.ramp_generator_input_select_0.v_cmp.t2 VSS.t95 sg13_lv_nmos ad=0.19p pd=1.38u as=0.19p ps=1.38u w=1u l=0.13u
X156 ota_lv_gmid_comparator_0.ota_slow_gmid_ctrl_buff_0.x.t3 ota_lv_gmid_comparator_0.ota_slow_gmid_mirror_0.vout1.t14 a_n586_691.t5 VDD.t1 sg13_lv_pmos ad=0.2375p pd=1.63u as=0.425p ps=3.18u w=1.25u l=0.13u
X157 VDD.t210 VDD.t195 VDD.t210 VDD.t28 sg13_lv_pmos ad=0.475p pd=2.88u as=0 ps=0 w=2.5u l=2u
X158 SEL_MEAS.t5 VMEAS.t0 ramp_generator_0.ramp_generator_input_select_0.v_cmp.t1 VSS.t94 sg13_lv_nmos ad=0.19p pd=1.38u as=0.19p ps=1.38u w=1u l=0.13u
X159 VDD.t147 RAMP_EN.t0 ramp_generator_0.ramp_generator_nmos_mirror_0.pmos_ref.t15 VDD.t146 sg13_lv_pmos ad=0.19p pd=1.38u as=0.19p ps=1.38u w=1u l=0.13u
X160 ramp_generator_0.ramp_generator_input_select_0.v_cmp.t14 SEL_CAL.t0 VCAL.t1 VSS.t122 sg13_lv_nmos ad=0.19p pd=1.38u as=0.19p ps=1.38u w=1u l=0.13u
X161 VDD.t55 ramp_generator_0.ramp_generator_nmos_mirror_0.pmos_ref.t22 ramp_generator_0.ramp_generator_nmos_mirror_0.pmos_ref.t38 VDD.t7 sg13_lv_pmos ad=0.1005p pd=1.34u as=0.1005p ps=1.34u w=0.15u l=10u
X162 VSS.t46 VSS.t4 VSS.t45 VSS.t5 sg13_lv_nmos ad=0.102p pd=1.28u as=0 ps=0 w=0.3u l=10u
X163 ota_lv_gmid_comparator_0.ota_slow_gmid_mirror_0.vout1.t12 ota_lv_gmid_comparator_0.ota_slow_gmid_mirror_0.vota.t5 VSS.t163 VSS.t83 sg13_lv_nmos ad=0.17p pd=1.68u as=95f ps=0.88u w=0.5u l=10u
X164 VDD.t145 RAMP_EN.t0 ramp_generator_0.ramp_generator_nmos_mirror_0.pmos_ref.t7 VDD.t131 sg13_lv_pmos ad=0.19p pd=1.38u as=0.19p ps=1.38u w=1u l=0.13u
X165 ota_lv_gmid_comparator_0.ota_slow_gmid_common_0/ota_slow_gmid_tail_0.ibiasn.t0 VBIAS.t8 VDD.t13 VDD.t1 sg13_lv_pmos ad=0.34p pd=2.68u as=0.19p ps=1.38u w=1u l=0.5u
X166 ramp_generator_0.ramp_generator_nmos_mirror_0.pmos_ref.t14 RAMP_EN.t0 VDD.t130 VDD.t144 sg13_lv_pmos ad=0.19p pd=1.38u as=0.19p ps=1.38u w=1u l=0.13u
X167 ota_lv_gmid_comparator_0.ota_slow_gmid_ctrl_buff_0.x.t5 ota_lv_gmid_comparator_0.ota_slow_gmid_mirror_0.vout1.t14 a_n586_691.t4 VDD.t1 sg13_lv_pmos ad=0.425p pd=3.18u as=0.2375p ps=1.63u w=1.25u l=0.13u
X168 ota_lv_gmid_comparator_0.ota_slow_gmid_ctrl_buff_0.x.t2 ota_lv_gmid_comparator_0.ota_slow_gmid_mirror_0.vout1.t14 a_n786_n1161.t11 VSS.t57 sg13_lv_nmos ad=0.38p pd=2.38u as=0.68p ps=4.68u w=2u l=0.13u
X169 VDD.t54 ramp_generator_0.ramp_generator_nmos_mirror_0.pmos_ref.t22 ramp_generator_0.ramp_generator_nmos_mirror_0.pmos_ref.t37 VDD.t7 sg13_lv_pmos ad=0.1005p pd=1.34u as=0.1005p ps=1.34u w=0.15u l=10u
X170 VDD.t53 ramp_generator_0.ramp_generator_nmos_mirror_0.pmos_ref.t22 ramp_generator_0.ramp_generator_nmos_mirror_0.pmos_ref.t36 VDD.t7 sg13_lv_pmos ad=0.1005p pd=1.34u as=0.1005p ps=1.34u w=0.15u l=10u
X171 VCAL.t7 SEL_CAL.t0 ramp_generator_0.ramp_generator_input_select_0.v_cmp.t14 VSS.t121 sg13_lv_nmos ad=0.19p pd=1.38u as=0.19p ps=1.38u w=1u l=0.13u
X172 ramp_generator_0.ramp_generator_nmos_mirror_0.pmos_ref.t13 RAMP_EN.t0 VDD.t128 VDD.t143 sg13_lv_pmos ad=0.19p pd=1.38u as=0.19p ps=1.38u w=1u l=0.13u
X173 VDD.t52 ramp_generator_0.ramp_generator_nmos_mirror_0.pmos_ref.t22 ramp_generator_0.ramp_generator_nmos_mirror_0.pmos_ref.t35 VDD.t7 sg13_lv_pmos ad=0.1005p pd=1.34u as=0.1005p ps=1.34u w=0.15u l=10u
X174 ota_lv_gmid_comparator_0.ota_slow_gmid_ctrl_buff_0.ota_slow_gmid_ctrl_inv_0.x.t1 ota_lv_gmid_comparator_0.ota_slow_gmid_ctrl_buff_0.x.t7 VDD.t29 VDD.t28 sg13_lv_pmos ad=0.68p pd=4.68u as=0.68p ps=4.68u w=2u l=0.13u
X175 VDD.t174 a_n2196_3318# VDD.t173 VDD.t172 sg13_lv_pmos ad=1.02p pd=6.68u as=0 ps=0 w=3u l=3u
X176 ota_lv_gmid_comparator_0.ota_slow_gmid_common_0/ota_slow_gmid_pairs_0.tail.t2 VRAMP.t15 ota_lv_gmid_comparator_0.ota_slow_gmid_mirror_0.vref.t0 VDD.t27 sg13_lv_pmos ad=0.475p pd=2.88u as=0.85p ps=5.68u w=2.5u l=5u
X177 VDD.t142 RAMP_EN.t0 ramp_generator_0.ramp_generator_nmos_mirror_0.pmos_ref.t3 VDD.t124 sg13_lv_pmos ad=0.19p pd=1.38u as=0.19p ps=1.38u w=1u l=0.13u
X178 VSS.t43 VSS.t16 VSS.t42 VSS.t17 sg13_lv_nmos ad=0.102p pd=1.28u as=0 ps=0 w=0.3u l=10u
X179 VSS.t170 VRAMP.t0 cap_cmim l=40u w=40u
X180 VSS.t40 VSS.t12 VSS.t39 VSS.t13 sg13_lv_nmos ad=0.17p pd=1.68u as=0 ps=0 w=0.5u l=2u
X181 VSS.t37 VSS.t8 VSS.t36 VSS.t9 sg13_lv_nmos ad=0.17p pd=1.68u as=0 ps=0 w=0.5u l=2u
X182 VDD.t76 ota_lv_gmid_comparator_0.ota_slow_gmid_ctrl_buff_0.x.t6 a_n786_n1161.t4 VSS.t78 sg13_lv_nmos ad=55.85f pd=0.74u as=55.85f ps=0.74u w=0.155u l=0.5u
X183 ota_lv_gmid_comparator_0.ota_slow_gmid_ctrl_buff_1.ota_slow_gmid_ctrl_inv_0.x.t1 RAMP_EN.t1 VDD.t89 VDD.t88 sg13_lv_pmos ad=0.68p pd=4.68u as=0.68p ps=4.68u w=2u l=0.13u
X184 VDD.t208 VDD.t206 VDD.t207 VDD.t88 sg13_lv_pmos ad=0.85p pd=5.68u as=0 ps=0 w=2.5u l=2u
X185 VCAL.t6 SEL_CAL.t0 ramp_generator_0.ramp_generator_input_select_0.v_cmp.t11 VSS.t120 sg13_lv_nmos ad=0.19p pd=1.38u as=0.19p ps=1.38u w=1u l=0.13u
X186 VDD.t176 a_n17365_1683# VDD.t175 VDD.t10 sg13_lv_pmos ad=0.1005p pd=1.34u as=0 ps=0 w=0.15u l=5u
X187 VDD.t81 ota_lv_gmid_comparator_0.ota_slow_gmid_ctrl_buff_0.x.t6 a_n786_n1161.t3 VSS.t77 sg13_lv_nmos ad=55.85f pd=0.74u as=55.85f ps=0.74u w=0.155u l=0.5u
X188 SEL_MEAS.t3 VMEAS.t0 ramp_generator_0.ramp_generator_input_select_0.v_cmp.t0 VSS.t93 sg13_lv_nmos ad=0.19p pd=1.38u as=0.19p ps=1.38u w=1u l=0.13u
X189 VDD.t205 VDD.t204 VDD.t205 VDD.t88 sg13_lv_pmos ad=0.475p pd=2.88u as=0 ps=0 w=2.5u l=2u
X190 SEL_MEAS.t9 VMEAS.t0 ramp_generator_0.ramp_generator_input_select_0.v_cmp.t4 VSS.t92 sg13_lv_nmos ad=0.19p pd=1.38u as=0.19p ps=1.38u w=1u l=0.13u
X191 ramp_generator_0.ramp_generator_input_select_0.v_cmp.t12 SEL_CAL.t0 VCAL.t5 VSS.t119 sg13_lv_nmos ad=0.19p pd=1.38u as=0.19p ps=1.38u w=1u l=0.13u
X192 ota_lv_gmid_comparator_0.ota_slow_gmid_mirror_0.vout1.t3 ota_lv_gmid_comparator_0.ota_slow_gmid_ctrl_buff_1.y.t3 VDD.t104 VDD.t28 sg13_lv_pmos ad=0.27075p pd=1.805u as=0.27075p ps=1.805u w=1.425u l=0.13u
X193 VDD.t141 RAMP_EN.t0 ramp_generator_0.ramp_generator_nmos_mirror_0.pmos_ref.t2 VDD.t122 sg13_lv_pmos ad=0.19p pd=1.38u as=0.19p ps=1.38u w=1u l=0.13u
X194 ramp_generator_0.ramp_generator_nmos_mirror_0.pmos_ref.t12 RAMP_EN.t0 VDD.t140 VDD.t139 sg13_lv_pmos ad=0.19p pd=1.38u as=0.19p ps=1.38u w=1u l=0.13u
X195 a_n586_691.t2 ota_lv_gmid_comparator_0.ota_slow_gmid_mirror_0.vout1.t15 VDD.t20 VDD.t19 sg13_lv_pmos ad=95f pd=0.88u as=0.2p ps=1.8u w=0.5u l=0.5u