* CDL Netlist generated by OpenROAD

*.BUSDELIMITER [

.include "SoC_Analog_Top.spice"
.include "$PDKPATH/libs.ref/sg13g2_stdcell/cdl/sg13g2_stdcell.cdl"
.include "$PDKPATH/libs.ref/sg13g2_io/spice/sg13g2_io.spi"

.SUBCKT SoC2263 VDD1v5 adc_done_PAD clk_PAD reset_n_PAD
+ sc_enable_PAD sc_vout_PAD sc_vref_PAD sensor_PAD state_out_0_PAD
+ state_out_1_PAD state_out_2_PAD trigger_PAD tx_PAD vbg_PAD
+ vramp_PAD VSS VDD IOVDD IOVSS
X_430_ sc_cal_ref_select\[3\] _043_ VDD VSS sg13g2_inv_1
X_431_ sc_cal_ref_select\[2\] _042_ VDD VSS sg13g2_inv_1
X_432_ sc_cal_ref_select\[1\] _041_ VDD VSS sg13g2_inv_1
X_433_ sc_cal_ref_select\[0\] _040_ VDD VSS sg13g2_inv_1
X_434_ ramp_reset_PIN _039_ VDD VSS sg13g2_inv_1
X_435_ _110_ net14 VDD VSS sg13g2_inv_1
X_436_ _111_ net10 VDD VSS sg13g2_inv_1
X_437_ _112_ net11 VDD VSS sg13g2_inv_1
X_438_ _113_ uut_full_system_top.uut_cal_fsm.amplifier_enable
+ VDD VSS sg13g2_inv_1
X_439_ adc_sel_cal_PIN adc_sel_meas_PIN VDD VSS sg13g2_inv_1
X_440_ _114_ uut_full_system_top.uut_cal_fsm.state\[2\] VDD
+ VSS sg13g2_inv_1
X_441_ _115_ uut_full_system_top.uut_adc_logic.state\[2\]
+ VDD VSS sg13g2_inv_1
X_442_ _116_ uut_full_system_top.uut_timer.done_d1 VDD VSS
+ sg13g2_inv_1
X_443_ _117_ uut_full_system_top.uut_uart.baud_counter\[6\]
+ VDD VSS sg13g2_inv_1
X_444_ _118_ uut_full_system_top.uut_adc_logic.adc_start_sync_1
+ VDD VSS sg13g2_inv_1
X_445_ _020_ uut_full_system_top.uut_timer.u_prescaler.counter\[0\]
+ VDD VSS sg13g2_inv_1
X_446_ sc_select_sen_PIN sc_select_cal_PIN VDD VSS sg13g2_inv_1
X_447_ _119_ net3 VDD VSS sg13g2_inv_1
X_448_ _120_ uut_full_system_top.uut_adc_logic.is_neg VDD
+ VSS sg13g2_inv_1
X_449_ _121_ uut_full_system_top.uut_timer.u_counter.counter\[4\]
+ VDD VSS sg13g2_inv_1
X_450_ _122_ uut_full_system_top.uut_timer.trigger_flag VDD
+ VSS sg13g2_inv_1
X_451_ uut_full_system_top.uut_cal_fsm.state\[0\] _045_ VDD
+ VSS sg13g2_inv_1
X_452_ _123_ _046_ VDD VSS sg13g2_inv_1
X_453_ tx _047_ VDD VSS sg13g2_inv_1
X_454_ _124_ uut_full_system_top.uut_uart.state\[3\] _044_
+ VDD VSS sg13g2_nand2b_1
X_455_ _125_ uut_full_system_top.uut_uart.bit_index\[0\] uut_full_system_top.uut_uart.bit_index\[1\]
+ VDD VSS sg13g2_nor2_1
X_456_ _126_ uut_full_system_top.uut_uart.bit_index\[0\] uut_full_system_top.uut_uart.bit_index\[1\]
+ VDD VSS sg13g2_and2_1
X_457_ _127_ uut_full_system_top.uut_uart.data_reg\[0\] uut_full_system_top.uut_uart.data_reg\[1\]
+ uut_full_system_top.uut_uart.data_reg\[2\] uut_full_system_top.uut_uart.data_reg\[3\]
+ uut_full_system_top.uut_uart.bit_index\[0\] uut_full_system_top.uut_uart.bit_index\[1\]
+ VDD VSS sg13g2_mux4_1
X_458_ _128_ uut_full_system_top.uut_uart.data_reg\[4\] uut_full_system_top.uut_uart.data_reg\[5\]
+ uut_full_system_top.uut_uart.data_reg\[6\] uut_full_system_top.uut_uart.data_reg\[7\]
+ uut_full_system_top.uut_uart.bit_index\[0\] uut_full_system_top.uut_uart.bit_index\[1\]
+ VDD VSS sg13g2_mux4_1
X_459_ _129_ _127_ _128_ uut_full_system_top.uut_uart.bit_index\[2\]
+ VDD VSS sg13g2_mux2_1
X_460_ _051_ uut_full_system_top.uut_uart.state\[1\] _129_
+ _124_ VDD VSS sg13g2_a21oi_1
X_461_ _130_ net20 uut_full_system_top.uut_adc_logic.counter\[0\]
+ VDD VSS sg13g2_and2_1
X_462_ _131_ net16 net14 VDD VSS sg13g2_and2_1
X_463_ _132_ net18 net12 _131_ VDD VSS sg13g2_nand3_1
X_464_ _133_ net17 net19 _130_ VDD VSS sg13g2_nand3_1
X_465_ _134_ _110_ _133_ VDD VSS sg13g2_nor2_1
X_466_ _135_ net10 net11 VDD VSS sg13g2_nand2_1
X_467_ _136_ _132_ _135_ VDD VSS sg13g2_nor2_1
X_468_ _137_ net8 _130_ _136_ VDD VSS sg13g2_nand3_1
X_469_ _138_ adc_comp_out_PIN _137_ VDD VSS sg13g2_and2_1
X_470_ _050_ _123_ _138_ VDD VSS sg13g2_nand2_1
X_471_ _139_ uut_full_system_top.uut_uart.tx_start_sync_2
+ uut_full_system_top.uut_uart.tx_start_sync_1 VDD VSS sg13g2_nand2b_1
X_472_ _140_ _044_ _139_ VDD VSS sg13g2_nor2b_1
X_473_ _141_ uut_full_system_top.uut_uart.baud_counter\[0\]
+ uut_full_system_top.uut_uart.baud_counter\[1\] uut_full_system_top.uut_uart.baud_counter\[2\]
+ VDD VSS sg13g2_and3_1
X_474_ _142_ uut_full_system_top.uut_uart.baud_counter\[3\]
+ uut_full_system_top.uut_uart.baud_counter\[4\] VDD VSS sg13g2_nor2_1
X_475_ _143_ uut_full_system_top.uut_uart.baud_counter\[5\]
+ uut_full_system_top.uut_uart.baud_counter\[6\] _141_ _142_
+ VDD VSS sg13g2_and4_1
X_476_ _048_ uut_full_system_top.uut_uart.state\[3\] net1
+ _140_ VDD VSS sg13g2_a21oi_1
X_477_ _001_ _046_ _138_ VDD VSS sg13g2_nor2_1
X_478_ _000_ _138_ uut_full_system_top.uut_adc_logic.state\[4\]
+ VDD VSS sg13g2_nor2b_1
X_479_ reset_n analog_reset_n_PIN reset_n_pad_sg VDD VSS sg13g2_and2_1
X_480_ _144_ net56 state_out\[1\] VDD VSS sg13g2_nor2_1
X_481_ _145_ net55 _144_ VDD VSS sg13g2_or2_1
X_482_ _146_ net56 state_out\[1\] VDD VSS sg13g2_nand2_1
X_483_ _147_ _145_ _146_ VDD VSS sg13g2_nor2b_1
X_484_ singnal_conditionning_en_PIN uut_full_system_top.uut_cal_fsm.amplifier_enable
+ sc_enable_pad_sg _147_ VDD VSS sg13g2_or3_1
X_485_ uut_full_system_top.clk_gated_adc uut_full_system_top.uut_clock_gating.adc_clk_gate.enable_latched
+ clk VDD VSS sg13g2_and2_1
X_486_ uut_full_system_top.clk_gated_uart clk uut_full_system_top.uut_clock_gating.uart_clk_gate.enable_latched
+ VDD VSS sg13g2_and2_1
X_487_ uut_full_system_top.clk_gated_cal clk uut_full_system_top.uut_clock_gating.cal_clk_gate.enable_latched
+ VDD VSS sg13g2_and2_1
X_488_ uut_full_system_top.adc_start net55 _146_ VDD VSS sg13g2_nor2_1
X_489_ _148_ state_out\[1\] net55 VDD VSS sg13g2_nor2b_1
X_490_ _149_ net55 _144_ VDD VSS sg13g2_nand2_1
X_491_ uut_full_system_top.adc_clk_en adc_sel_meas_PIN net30
+ _145_ _149_ VDD VSS sg13g2_nand4_1
X_492_ _150_ uut_full_system_top.uut_cal_fsm.state\[1\] uut_full_system_top.uut_cal_fsm.amplifier_enable
+ uut_full_system_top.uut_cal_fsm.state\[2\] uut_full_system_top.uut_cal_fsm.state\[0\]
+ VDD VSS sg13g2_nor4_1
X_493_ uut_full_system_top.cal_active net30 _150_ VDD VSS
+ sg13g2_nand2_1
X_494_ uut_full_system_top.trigger_armed adc_sel_meas_PIN
+ trigger net30 _150_ VDD VSS sg13g2_and4_1
X_495_ _151_ net55 state_out\[1\] VDD VSS sg13g2_nand2_1
X_496_ uut_full_system_top.tx_start net56 _151_ VDD VSS sg13g2_nor2_1
X_497_ _152_ net1 uut_full_system_top.uut_uart.state\[3\]
+ VDD VSS sg13g2_nand2b_1
X_498_ _153_ uut_full_system_top.uut_uart.bit_index\[2\] _126_
+ VDD VSS sg13g2_and2_1
X_499_ _154_ uut_full_system_top.uut_uart.state\[1\] net1
+ VDD VSS sg13g2_nand2_1
X_500_ _155_ uut_full_system_top.uut_uart.state\[1\] net1
+ _153_ VDD VSS sg13g2_nand3_1
X_501_ _008_ _152_ _155_ VDD VSS sg13g2_nand2_1
X_502_ _156_ net1 uut_full_system_top.uut_uart.state\[2\]
+ VDD VSS sg13g2_nand2b_1
X_503_ _007_ _044_ _139_ _156_ VDD VSS sg13g2_o21ai_1
X_504_ _157_ uut_full_system_top.uut_uart.state\[2\] net1
+ VDD VSS sg13g2_nand2_1
X_505_ _158_ _153_ _154_ _157_ VDD VSS sg13g2_o21ai_1
X_506_ _159_ _143_ uut_full_system_top.uut_uart.state\[1\]
+ VDD VSS sg13g2_nand2b_1
X_507_ _006_ _158_ _159_ VDD VSS sg13g2_nand2b_1
X_508_ _160_ sc_cal_ref_select\[3\] sc_cal_ref_select\[2\]
+ sc_cal_ref_select\[1\] _040_ VDD VSS sg13g2_nor4_1
X_509_ _161_ cal_comp_out_PIN _160_ VDD VSS sg13g2_nor2_1
X_510_ _162_ cal_comp_out_PIN _160_ uut_full_system_top.uut_cal_fsm.state\[1\]
+ VDD VSS sg13g2_o21ai_1
X_511_ _005_ uut_full_system_top.uut_cal_fsm.state\[3\] _162_
+ VDD VSS sg13g2_nand2b_1
X_512_ _163_ uut_full_system_top.uut_cal_fsm.state\[1\] _161_
+ VDD VSS sg13g2_nand2_1
X_513_ _004_ _114_ _163_ VDD VSS sg13g2_nand2_1
X_514_ _164_ uut_full_system_top.uut_adc_logic.adc_start_sync_2
+ _118_ _147_ VDD VSS sg13g2_nor3_1
X_515_ _165_ uut_full_system_top.uut_adc_logic.state\[2\]
+ _164_ VDD VSS sg13g2_nand2_1
X_516_ _166_ uut_full_system_top.uut_adc_logic.state\[4\]
+ _138_ VDD VSS sg13g2_nand2_1
X_517_ _003_ _165_ _166_ VDD VSS sg13g2_nand2_1
X_518_ _167_ uut_full_system_top.uut_adc_logic.state\[3\]
+ net2 VDD VSS sg13g2_nor2_1
X_519_ _168_ _115_ _167_ VDD VSS sg13g2_nand2_1
X_520_ _002_ _115_ _164_ _167_ VDD VSS sg13g2_o21ai_1
X_521_ uut_full_system_top.uart_en net55 _146_ VDD VSS sg13g2_and2_1
X_522_ _030_ uut_full_system_top.uut_timer.u_prescaler.counter\[0\]
+ uut_full_system_top.uut_timer.u_prescaler.counter\[1\] VDD
+ VSS sg13g2_xor2_1
X_523_ _169_ uut_full_system_top.uut_timer.u_prescaler.counter\[0\]
+ uut_full_system_top.uut_timer.u_prescaler.counter\[1\] uut_full_system_top.uut_timer.u_prescaler.counter\[2\]
+ VDD VSS sg13g2_nand3_1
X_524_ _170_ uut_full_system_top.uut_timer.u_prescaler.counter\[0\]
+ uut_full_system_top.uut_timer.u_prescaler.counter\[1\] uut_full_system_top.uut_timer.u_prescaler.counter\[2\]
+ VDD VSS sg13g2_a21o_1
X_525_ _031_ _169_ _170_ VDD VSS sg13g2_and2_1
X_526_ _171_ uut_full_system_top.uut_timer.u_prescaler.counter\[0\]
+ uut_full_system_top.uut_timer.u_prescaler.counter\[1\] uut_full_system_top.uut_timer.u_prescaler.counter\[2\]
+ uut_full_system_top.uut_timer.u_prescaler.counter\[3\] VDD
+ VSS sg13g2_and4_1
X_527_ _032_ uut_full_system_top.uut_timer.u_prescaler.counter\[3\]
+ _169_ VDD VSS sg13g2_xnor2_1
X_528_ _172_ uut_full_system_top.uut_timer.u_prescaler.counter\[4\]
+ _171_ VDD VSS sg13g2_and2_1
X_529_ _033_ uut_full_system_top.uut_timer.u_prescaler.counter\[4\]
+ _171_ VDD VSS sg13g2_xor2_1
X_530_ _173_ uut_full_system_top.uut_timer.u_prescaler.counter\[11\]
+ uut_full_system_top.uut_timer.u_prescaler.counter\[8\] VDD
+ VSS sg13g2_nor2b_1
X_531_ _174_ uut_full_system_top.uut_timer.u_prescaler.counter\[5\]
+ uut_full_system_top.uut_timer.u_prescaler.counter\[7\] uut_full_system_top.uut_timer.u_prescaler.counter\[6\]
+ uut_full_system_top.uut_timer.u_prescaler.counter\[9\] VDD
+ VSS sg13g2_nor4_1
X_532_ _175_ uut_full_system_top.uut_timer.u_prescaler.counter\[15\]
+ uut_full_system_top.uut_timer.u_prescaler.counter\[16\] uut_full_system_top.uut_timer.u_prescaler.counter\[17\]
+ uut_full_system_top.uut_timer.u_prescaler.counter\[18\] VDD
+ VSS sg13g2_nand4_1
X_533_ _176_ uut_full_system_top.uut_timer.u_prescaler.counter\[10\]
+ uut_full_system_top.uut_timer.u_prescaler.counter\[13\] VDD
+ VSS sg13g2_nand2b_1
X_534_ _177_ uut_full_system_top.uut_timer.u_prescaler.counter\[12\]
+ uut_full_system_top.uut_timer.u_prescaler.counter\[14\] _175_
+ _176_ VDD VSS sg13g2_nor4_1
X_535_ _178_ _172_ _173_ _174_ _177_ VDD VSS sg13g2_and4_1
X_536_ _179_ uut_full_system_top.uut_timer.u_prescaler.counter\[5\]
+ _172_ VDD VSS sg13g2_xnor2_1
X_537_ _034_ _178_ _179_ VDD VSS sg13g2_nor2_1
X_538_ _180_ uut_full_system_top.uut_timer.u_prescaler.counter\[5\]
+ uut_full_system_top.uut_timer.u_prescaler.counter\[6\] _172_
+ VDD VSS sg13g2_nand3_1
X_539_ _181_ uut_full_system_top.uut_timer.u_prescaler.counter\[5\]
+ _172_ uut_full_system_top.uut_timer.u_prescaler.counter\[6\]
+ VDD VSS sg13g2_a21o_1
X_540_ _035_ _180_ _181_ VDD VSS sg13g2_and2_1
X_541_ _182_ uut_full_system_top.uut_timer.u_prescaler.counter\[5\]
+ uut_full_system_top.uut_timer.u_prescaler.counter\[7\] uut_full_system_top.uut_timer.u_prescaler.counter\[6\]
+ _172_ VDD VSS sg13g2_and4_1
X_542_ _036_ uut_full_system_top.uut_timer.u_prescaler.counter\[7\]
+ _180_ VDD VSS sg13g2_xnor2_1
X_543_ _183_ uut_full_system_top.uut_timer.u_prescaler.counter\[8\]
+ _182_ VDD VSS sg13g2_nor2_1
X_544_ _184_ uut_full_system_top.uut_timer.u_prescaler.counter\[8\]
+ _182_ VDD VSS sg13g2_and2_1
X_545_ _037_ _178_ _183_ _184_ VDD VSS sg13g2_nor3_1
X_546_ _038_ uut_full_system_top.uut_timer.u_prescaler.counter\[9\]
+ _184_ VDD VSS sg13g2_xor2_1
X_547_ _185_ uut_full_system_top.uut_timer.u_prescaler.counter\[9\]
+ uut_full_system_top.uut_timer.u_prescaler.counter\[10\] _184_
+ VDD VSS sg13g2_and3_1
X_548_ _186_ uut_full_system_top.uut_timer.u_prescaler.counter\[9\]
+ _184_ uut_full_system_top.uut_timer.u_prescaler.counter\[10\]
+ VDD VSS sg13g2_a21oi_1
X_549_ _021_ _185_ _186_ VDD VSS sg13g2_nor2_1
X_550_ _022_ uut_full_system_top.uut_timer.u_prescaler.counter\[11\]
+ _185_ VDD VSS sg13g2_xor2_1
X_551_ _187_ uut_full_system_top.uut_timer.u_prescaler.counter\[11\]
+ uut_full_system_top.uut_timer.u_prescaler.counter\[12\] _185_
+ VDD VSS sg13g2_nand3_1
X_552_ _188_ uut_full_system_top.uut_timer.u_prescaler.counter\[11\]
+ _185_ uut_full_system_top.uut_timer.u_prescaler.counter\[12\]
+ VDD VSS sg13g2_a21o_1
X_553_ _023_ _187_ _188_ VDD VSS sg13g2_and2_1
X_554_ _189_ uut_full_system_top.uut_timer.u_prescaler.counter\[13\]
+ _187_ VDD VSS sg13g2_nor2b_1
X_555_ _190_ uut_full_system_top.uut_timer.u_prescaler.counter\[11\]
+ uut_full_system_top.uut_timer.u_prescaler.counter\[12\] uut_full_system_top.uut_timer.u_prescaler.counter\[13\]
+ _185_ VDD VSS sg13g2_and4_1
X_556_ _024_ _178_ _189_ _190_ VDD VSS sg13g2_nor3_1
X_557_ _191_ uut_full_system_top.uut_timer.u_prescaler.counter\[14\]
+ _190_ VDD VSS sg13g2_and2_1
X_558_ _025_ uut_full_system_top.uut_timer.u_prescaler.counter\[14\]
+ _190_ VDD VSS sg13g2_xor2_1
X_559_ _192_ uut_full_system_top.uut_timer.u_prescaler.counter\[15\]
+ _191_ VDD VSS sg13g2_nor2_1
X_560_ _193_ uut_full_system_top.uut_timer.u_prescaler.counter\[15\]
+ _191_ VDD VSS sg13g2_and2_1
X_561_ _026_ _178_ _192_ _193_ VDD VSS sg13g2_nor3_1
X_562_ _194_ uut_full_system_top.uut_timer.u_prescaler.counter\[16\]
+ _193_ VDD VSS sg13g2_nor2_1
X_563_ _195_ uut_full_system_top.uut_timer.u_prescaler.counter\[16\]
+ _193_ VDD VSS sg13g2_and2_1
X_564_ _027_ _178_ _194_ _195_ VDD VSS sg13g2_nor3_1
X_565_ _196_ uut_full_system_top.uut_timer.u_prescaler.counter\[17\]
+ _195_ VDD VSS sg13g2_nor2_1
X_566_ _197_ uut_full_system_top.uut_timer.u_prescaler.counter\[17\]
+ _195_ VDD VSS sg13g2_and2_1
X_567_ _028_ _178_ _196_ _197_ VDD VSS sg13g2_nor3_1
X_568_ _198_ uut_full_system_top.uut_timer.u_prescaler.counter\[18\]
+ _197_ VDD VSS sg13g2_nor2_1
X_569_ _199_ uut_full_system_top.uut_timer.u_prescaler.counter\[18\]
+ _197_ _178_ VDD VSS sg13g2_a21oi_1
X_570_ _029_ _198_ _199_ VDD VSS sg13g2_nor2b_1
X_571_ _200_ uut_full_system_top.uut_timer.u_counter.trig_d2
+ uut_full_system_top.uut_timer.u_counter.trig_d1 VDD VSS sg13g2_nor2b_1
X_572_ _201_ _200_ VDD VSS sg13g2_inv_1
X_573_ _009_ uut_full_system_top.uut_timer.u_counter.counter\[0\]
+ _200_ VDD VSS sg13g2_nor2_1
X_574_ _202_ uut_full_system_top.uut_timer.u_counter.counter\[0\]
+ uut_full_system_top.uut_timer.u_counter.counter\[1\] _201_
+ VDD VSS sg13g2_o21ai_1
X_575_ _010_ uut_full_system_top.uut_timer.u_counter.counter\[0\]
+ uut_full_system_top.uut_timer.u_counter.counter\[1\] _202_
+ VDD VSS sg13g2_a21oi_1
X_576_ _203_ uut_full_system_top.uut_timer.u_counter.counter\[0\]
+ uut_full_system_top.uut_timer.u_counter.counter\[1\] uut_full_system_top.uut_timer.u_counter.counter\[2\]
+ VDD VSS sg13g2_a21oi_1
X_577_ _204_ uut_full_system_top.uut_timer.u_counter.counter\[0\]
+ uut_full_system_top.uut_timer.u_counter.counter\[1\] uut_full_system_top.uut_timer.u_counter.counter\[2\]
+ VDD VSS sg13g2_and3_1
X_578_ _011_ _200_ _203_ _204_ VDD VSS sg13g2_nor3_1
X_579_ _205_ uut_full_system_top.uut_timer.u_counter.counter\[8\]
+ uut_full_system_top.uut_timer.u_counter.counter\[6\] VDD VSS
+ sg13g2_nor2b_1
X_580_ _206_ uut_full_system_top.uut_timer.u_counter.counter\[3\]
+ uut_full_system_top.uut_timer.u_counter.counter\[5\] _121_
+ uut_full_system_top.uut_timer.u_counter.counter\[7\] VDD VSS
+ sg13g2_nor4_1
X_581_ _207_ uut_full_system_top.uut_timer.u_counter.counter\[9\]
+ _204_ _205_ _206_ VDD VSS sg13g2_and4_1
X_582_ _208_ _200_ _207_ VDD VSS sg13g2_or2_1
X_583_ _209_ uut_full_system_top.uut_timer.u_counter.counter\[3\]
+ _204_ VDD VSS sg13g2_and2_1
X_584_ _210_ uut_full_system_top.uut_timer.u_counter.counter\[3\]
+ _204_ VDD VSS sg13g2_nor2_1
X_585_ _012_ _208_ _209_ _210_ VDD VSS sg13g2_nor3_1
X_586_ _211_ uut_full_system_top.uut_timer.u_counter.counter\[4\]
+ _209_ VDD VSS sg13g2_and2_1
X_587_ _212_ uut_full_system_top.uut_timer.u_counter.counter\[4\]
+ _209_ VDD VSS sg13g2_nor2_1
X_588_ _013_ _208_ _211_ _212_ VDD VSS sg13g2_nor3_1
X_589_ _213_ uut_full_system_top.uut_timer.u_counter.counter\[5\]
+ _211_ _200_ VDD VSS sg13g2_a21oi_1
X_590_ _214_ uut_full_system_top.uut_timer.u_counter.counter\[5\]
+ _211_ _213_ VDD VSS sg13g2_o21ai_1
X_591_ _014_ _214_ VDD VSS sg13g2_inv_1
X_592_ _215_ uut_full_system_top.uut_timer.u_counter.counter\[5\]
+ _211_ uut_full_system_top.uut_timer.u_counter.counter\[6\]
+ VDD VSS sg13g2_a21oi_1
X_593_ _216_ uut_full_system_top.uut_timer.u_counter.counter\[5\]
+ uut_full_system_top.uut_timer.u_counter.counter\[6\] _211_
+ VDD VSS sg13g2_and3_1
X_594_ _015_ _208_ _215_ _216_ VDD VSS sg13g2_nor3_1
X_595_ _217_ uut_full_system_top.uut_timer.u_counter.counter\[7\]
+ _216_ VDD VSS sg13g2_nor2_1
X_596_ _218_ uut_full_system_top.uut_timer.u_counter.counter\[7\]
+ _216_ VDD VSS sg13g2_and2_1
X_597_ _016_ _200_ _217_ _218_ VDD VSS sg13g2_nor3_1
X_598_ _219_ uut_full_system_top.uut_timer.u_counter.counter\[8\]
+ _218_ VDD VSS sg13g2_or2_1
X_599_ _220_ uut_full_system_top.uut_timer.u_counter.counter\[8\]
+ _218_ VDD VSS sg13g2_nand2_1
X_600_ _017_ _201_ _219_ _220_ VDD VSS sg13g2_and3_1
X_601_ _221_ uut_full_system_top.uut_timer.u_counter.counter\[9\]
+ _220_ VDD VSS sg13g2_xor2_1
X_602_ _018_ _208_ _221_ VDD VSS sg13g2_nor2_1
X_603_ _019_ _201_ _207_ VDD VSS sg13g2_and2_1
X_604_ _222_ uut_full_system_top.uut_adc_logic.state\[2\]
+ uut_full_system_top.uut_adc_logic.counter_enable VDD VSS sg13g2_nor2b_1
X_605_ _223_ _138_ _222_ VDD VSS sg13g2_and2_1
X_606_ _224_ uut_full_system_top.uut_adc_logic.counter_enable
+ _138_ uut_full_system_top.uut_adc_logic.state\[2\] VDD VSS
+ sg13g2_a21oi_1
X_607_ _052_ _223_ _224_ uut_full_system_top.uut_adc_logic.counter\[0\]
+ VDD VSS sg13g2_mux2_1
X_608_ _225_ net20 uut_full_system_top.uut_adc_logic.counter\[0\]
+ VDD VSS sg13g2_xor2_1
X_609_ _226_ net20 _224_ _225_ _223_ VDD VSS sg13g2_a22oi_1
X_610_ _053_ _226_ VDD VSS sg13g2_inv_1
X_611_ _227_ net19 _130_ VDD VSS sg13g2_xor2_1
X_612_ _228_ net19 _224_ _227_ _223_ VDD VSS sg13g2_a22oi_1
X_613_ _054_ _228_ VDD VSS sg13g2_inv_1
X_614_ _229_ net18 _130_ net16 VDD VSS sg13g2_a21o_1
X_615_ _230_ _133_ _229_ VDD VSS sg13g2_and2_1
X_616_ _231_ net17 _224_ _230_ _223_ VDD VSS sg13g2_a22oi_1
X_617_ _055_ _231_ VDD VSS sg13g2_inv_1
X_618_ _232_ _110_ _133_ VDD VSS sg13g2_and2_1
X_619_ _233_ _134_ _232_ VDD VSS sg13g2_nor2_1
X_620_ _234_ net14 _224_ _233_ _223_ VDD VSS sg13g2_a22oi_1
X_621_ _056_ _234_ VDD VSS sg13g2_inv_1
X_622_ _235_ net13 _134_ VDD VSS sg13g2_xor2_1
X_623_ _236_ net13 _224_ _235_ _223_ VDD VSS sg13g2_a22oi_1
X_624_ _057_ _236_ VDD VSS sg13g2_inv_1
X_625_ _237_ net13 uut_full_system_top.uut_adc_logic.counter_enable
+ _134_ _138_ VDD VSS sg13g2_nand4_1
X_626_ _238_ _112_ _237_ VDD VSS sg13g2_nor2_1
X_627_ _239_ _112_ _237_ uut_full_system_top.uut_adc_logic.state\[2\]
+ VDD VSS sg13g2_a21oi_1
X_628_ _058_ _238_ _239_ VDD VSS sg13g2_nor2b_1
X_629_ _240_ _135_ _237_ VDD VSS sg13g2_nor2_1
X_630_ _241_ uut_full_system_top.uut_adc_logic.counter\[7\]
+ _238_ _115_ VDD VSS sg13g2_o21ai_1
X_631_ _059_ _240_ _241_ VDD VSS sg13g2_nor2_1
X_632_ _242_ net9 _240_ VDD VSS sg13g2_nor2_1
X_633_ _060_ uut_full_system_top.uut_adc_logic.state\[2\]
+ _242_ VDD VSS sg13g2_nor2_1
X_634_ _061_ _115_ adc_done net2 VDD VSS sg13g2_a21o_1
X_635_ _243_ ramp_en_PIN _123_ VDD VSS sg13g2_nor2_1
X_636_ _062_ _168_ _243_ _165_ VDD VSS sg13g2_o21ai_1
X_637_ _244_ uut_full_system_top.uut_adc_logic.state\[4\]
+ _123_ VDD VSS sg13g2_nor2_1
X_638_ _063_ ramp_reset_PIN _244_ _168_ VDD VSS sg13g2_a21oi_1
X_639_ _245_ net2 uut_full_system_top.adc_result\[0\] VDD
+ VSS sg13g2_nor2_1
X_640_ _246_ net4 net6 VDD VSS sg13g2_nor2_1
X_641_ _247_ net4 net6 VDD VSS sg13g2_or2_1
X_642_ _248_ net3 net6 VDD VSS sg13g2_nor2_1
X_643_ _249_ net3 _246_ VDD VSS sg13g2_nor2_1
X_644_ _250_ _119_ _247_ VDD VSS sg13g2_nand2_1
X_645_ _251_ net10 net7 VDD VSS sg13g2_nor2_1
X_646_ _252_ net8 net7 VDD VSS sg13g2_nor2b_1
X_647_ _253_ net5 _248_ _251_ _252_ VDD VSS sg13g2_or4_1
X_648_ _254_ net12 net11 net6 VDD VSS sg13g2_mux2_1
X_649_ _255_ net16 net14 net6 VDD VSS sg13g2_mux2_1
X_650_ _256_ net4 _255_ VDD VSS sg13g2_nand2b_1
X_651_ _257_ net5 _254_ net3 VDD VSS sg13g2_a21oi_1
X_652_ _258_ _250_ _253_ _256_ _257_ VDD VSS sg13g2_a22oi_1
X_653_ _259_ net11 net10 net7 VDD VSS sg13g2_mux2_1
X_654_ _260_ net14 net11 net12 net10 net4 net6 VDD VSS sg13g2_mux4_1
X_655_ _261_ net3 _260_ VDD VSS sg13g2_and2_1
X_656_ _262_ net18 net16 net6 VDD VSS sg13g2_mux2_1
X_657_ _263_ net20 _262_ net4 VDD VSS sg13g2_mux2_1
X_658_ _264_ _249_ _263_ _261_ VDD VSS sg13g2_a21oi_1
X_659_ _265_ _249_ _263_ _261_ VDD VSS sg13g2_a21o_1
X_660_ _266_ net12 net10 net11 net8 net4 net7 VDD VSS sg13g2_mux4_1
X_661_ _267_ net3 _266_ VDD VSS sg13g2_and2_1
X_662_ _268_ net18 _255_ net4 VDD VSS sg13g2_mux2_1
X_663_ _269_ _249_ _268_ _267_ VDD VSS sg13g2_a21oi_1
X_664_ _270_ _249_ _268_ _267_ VDD VSS sg13g2_a21o_1
X_665_ _271_ net7 net8 VDD VSS sg13g2_nor2b_1
X_666_ _272_ _259_ _271_ net5 VDD VSS sg13g2_mux2_1
X_667_ _273_ net18 net15 net16 net12 net4 net6 VDD VSS sg13g2_mux4_1
X_668_ _274_ _119_ _247_ _273_ VDD VSS sg13g2_and3_1
X_669_ _275_ net3 _272_ _274_ VDD VSS sg13g2_a21o_1
X_670_ _276_ _264_ _269_ uut_full_system_top.uut_adc_logic.is_neg
+ VDD VSS sg13g2_a21oi_1
X_671_ _277_ _120_ _275_ _276_ VDD VSS sg13g2_a21oi_1
X_672_ _278_ _258_ _277_ VDD VSS sg13g2_xor2_1
X_673_ _279_ net17 _278_ VDD VSS sg13g2_nor2_1
X_674_ _280_ _275_ _276_ VDD VSS sg13g2_xor2_1
X_675_ _281_ _280_ net19 VDD VSS sg13g2_nor2b_1
X_676_ _282_ uut_full_system_top.uut_adc_logic.is_neg _264_
+ _270_ VDD VSS sg13g2_o21ai_1
X_677_ _283_ _120_ _265_ _269_ VDD VSS sg13g2_nand3_1
X_678_ _284_ net20 _282_ _283_ VDD VSS sg13g2_nand3_1
X_679_ _285_ uut_full_system_top.uut_adc_logic.counter\[0\]
+ _264_ VDD VSS sg13g2_nor2_1
X_680_ _286_ _282_ _283_ net20 VDD VSS sg13g2_a21oi_1
X_681_ _287_ _282_ _283_ net20 VDD VSS sg13g2_a21o_1
X_682_ _288_ _284_ _287_ VDD VSS sg13g2_nand2_1
X_683_ _289_ _285_ _286_ _284_ VDD VSS sg13g2_o21ai_1
X_684_ _290_ net19 _280_ VDD VSS sg13g2_xnor2_1
X_685_ _291_ _289_ _290_ _281_ VDD VSS sg13g2_a21oi_1
X_686_ _292_ net17 _278_ _289_ _290_ _281_ VDD VSS sg13g2_a221oi_1
X_687_ _293_ _279_ _292_ VDD VSS sg13g2_or2_1
X_688_ _294_ net8 net3 VDD VSS sg13g2_and2_1
X_689_ _295_ _249_ _260_ _294_ _246_ VDD VSS sg13g2_a22oi_1
X_690_ _296_ _258_ _265_ _270_ _275_ VDD VSS sg13g2_nor4_1
X_691_ _297_ uut_full_system_top.uut_adc_logic.is_neg _296_
+ VDD VSS sg13g2_nor2_1
X_692_ _298_ _295_ _297_ VDD VSS sg13g2_xor2_1
X_693_ _299_ net14 _298_ VDD VSS sg13g2_nand2_1
X_694_ _300_ net14 _298_ VDD VSS sg13g2_xnor2_1
X_695_ _301_ _295_ _296_ uut_full_system_top.uut_adc_logic.is_neg
+ VDD VSS sg13g2_a21o_1
X_696_ _302_ _249_ _266_ VDD VSS sg13g2_nand2_1
X_697_ _303_ _301_ _302_ VDD VSS sg13g2_xnor2_1
X_698_ _304_ net12 _303_ VDD VSS sg13g2_nor2_1
X_699_ _305_ net12 _303_ VDD VSS sg13g2_xnor2_1
X_700_ _306_ _279_ _292_ _300_ _305_ VDD VSS sg13g2_or4_1
X_701_ _307_ net14 _298_ _303_ net12 VDD VSS sg13g2_a22oi_1
X_702_ _308_ _304_ _307_ VDD VSS sg13g2_or2_1
X_703_ _309_ _306_ _308_ VDD VSS sg13g2_and2_1
X_704_ _310_ _249_ _272_ VDD VSS sg13g2_nand2_1
X_705_ _311_ _120_ _249_ _266_ VDD VSS sg13g2_nand3_1
X_706_ _312_ _301_ _310_ _311_ VDD VSS sg13g2_nand3_1
X_707_ _313_ _301_ _311_ _310_ VDD VSS sg13g2_a21o_1
X_708_ _314_ _312_ _313_ VDD VSS sg13g2_nand2_1
X_709_ _315_ net11 _314_ VDD VSS sg13g2_nand2_1
X_710_ _316_ net11 _314_ VDD VSS sg13g2_xnor2_1
X_711_ _317_ uut_full_system_top.uut_adc_logic.shift_n\[2\]
+ _253_ VDD VSS sg13g2_nor2_1
X_712_ _318_ _253_ _119_ VDD VSS sg13g2_nand2b_1
X_713_ _319_ _120_ _312_ _318_ VDD VSS sg13g2_nand3_1
X_714_ _320_ _120_ _312_ _318_ VDD VSS sg13g2_a21o_1
X_715_ _321_ net10 _319_ _320_ VDD VSS sg13g2_nand3_1
X_716_ _322_ _319_ _320_ net10 VDD VSS sg13g2_a21oi_1
X_717_ _323_ _319_ _320_ _111_ VDD VSS sg13g2_a21o_1
X_718_ _324_ _111_ _319_ _320_ VDD VSS sg13g2_nand3_1
X_719_ _325_ _323_ _324_ VDD VSS sg13g2_nand2_1
X_720_ _326_ _306_ _308_ _323_ _324_ _316_ VDD VSS sg13g2_a221oi_1
X_721_ _327_ _315_ _321_ _322_ VDD VSS sg13g2_a21oi_1
X_722_ _328_ _312_ _317_ _120_ VDD VSS sg13g2_o21ai_1
X_723_ _329_ net8 _328_ VDD VSS sg13g2_xnor2_1
X_724_ _330_ _326_ _327_ _329_ VDD VSS sg13g2_or3_1
X_725_ _331_ _326_ _327_ _329_ VDD VSS sg13g2_o21ai_1
X_726_ _332_ uut_full_system_top.uut_adc_logic.state\[1\]
+ _330_ _331_ VDD VSS sg13g2_and3_1
X_727_ _333_ uut_full_system_top.uut_adc_logic.counter\[0\]
+ _265_ VDD VSS sg13g2_xnor2_1
X_728_ _064_ _332_ _333_ _245_ VDD VSS sg13g2_a21oi_1
X_729_ _334_ net2 uut_full_system_top.adc_result\[1\] VDD
+ VSS sg13g2_nor2_1
X_730_ _335_ _285_ _288_ VDD VSS sg13g2_xnor2_1
X_731_ _065_ _332_ _335_ _334_ VDD VSS sg13g2_a21oi_1
X_732_ _336_ net2 uut_full_system_top.adc_result\[2\] VDD
+ VSS sg13g2_nor2_1
X_733_ _337_ _289_ _290_ VDD VSS sg13g2_xnor2_1
X_734_ _066_ _332_ _337_ _336_ VDD VSS sg13g2_a21oi_1
X_735_ _338_ net2 uut_full_system_top.adc_result\[3\] VDD
+ VSS sg13g2_nor2_1
X_736_ _339_ net17 _278_ VDD VSS sg13g2_xnor2_1
X_737_ _340_ _291_ _339_ VDD VSS sg13g2_xnor2_1
X_738_ _067_ _332_ _340_ _338_ VDD VSS sg13g2_a21oi_1
X_739_ _341_ net2 uut_full_system_top.adc_result\[4\] VDD
+ VSS sg13g2_nor2_1
X_740_ _342_ _293_ _300_ VDD VSS sg13g2_xnor2_1
X_741_ _068_ _332_ _342_ _341_ VDD VSS sg13g2_a21oi_1
X_742_ _343_ net2 uut_full_system_top.adc_result\[5\] VDD
+ VSS sg13g2_nor2_1
X_743_ _344_ _293_ _300_ _299_ VDD VSS sg13g2_o21ai_1
X_744_ _345_ _305_ _344_ VDD VSS sg13g2_xor2_1
X_745_ _069_ _332_ _345_ _343_ VDD VSS sg13g2_a21oi_1
X_746_ _346_ uut_full_system_top.uut_adc_logic.state\[1\]
+ uut_full_system_top.adc_result\[6\] VDD VSS sg13g2_nor2_1
X_747_ _347_ _309_ _316_ VDD VSS sg13g2_xnor2_1
X_748_ _070_ _332_ _347_ _346_ VDD VSS sg13g2_a21oi_1
X_749_ _348_ uut_full_system_top.uut_adc_logic.state\[1\]
+ uut_full_system_top.adc_result\[7\] VDD VSS sg13g2_nor2_1
X_750_ _349_ _309_ _316_ _315_ VDD VSS sg13g2_o21ai_1
X_751_ _350_ _325_ _349_ VDD VSS sg13g2_xnor2_1
X_752_ _071_ _332_ _350_ _348_ VDD VSS sg13g2_a21oi_1
X_753_ _072_ adc_sel_cal_PIN _123_ _115_ VDD VSS sg13g2_o21ai_1
X_754_ _073_ _138_ _222_ _244_ VDD VSS sg13g2_mux2_1
X_755_ _351_ uut_full_system_top.uut_adc_logic.state\[3\]
+ net7 VDD VSS sg13g2_nand2b_1
X_756_ _352_ net16 net18 VDD VSS sg13g2_nor2_1
X_757_ _353_ net16 net15 VDD VSS sg13g2_nor2_1
X_758_ _354_ net13 uut_full_system_top.uut_adc_logic.counter\[7\]
+ uut_full_system_top.uut_adc_logic.counter\[6\] VDD VSS sg13g2_nor3_1
X_759_ _355_ net8 _354_ VDD VSS sg13g2_nand2_1
X_760_ _356_ _355_ VDD VSS sg13g2_inv_1
X_761_ _357_ net20 uut_full_system_top.uut_adc_logic.counter\[0\]
+ _355_ VDD VSS sg13g2_nor3_1
X_762_ _358_ _353_ _357_ _352_ VDD VSS sg13g2_a21o_1
X_763_ _359_ _358_ VDD VSS sg13g2_inv_1
X_764_ _360_ net18 _357_ VDD VSS sg13g2_nand2b_1
X_765_ _361_ net16 _360_ _358_ VDD VSS sg13g2_a21o_1
X_766_ _362_ net15 _229_ _232_ _361_ VDD VSS sg13g2_a22oi_1
X_767_ _363_ net9 _135_ VDD VSS sg13g2_nor2_1
X_768_ _364_ net13 _363_ VDD VSS sg13g2_nand2_1
X_769_ _365_ _364_ VDD VSS sg13g2_inv_1
X_770_ _366_ uut_full_system_top.uut_adc_logic.counter\[1\]
+ net18 net17 VDD VSS sg13g2_a21oi_1
X_771_ _367_ _110_ _364_ _366_ VDD VSS sg13g2_nor3_1
X_772_ _368_ _132_ _135_ _131_ VDD VSS sg13g2_o21ai_1
X_773_ _369_ _131_ _354_ net9 VDD VSS sg13g2_o21ai_1
X_774_ _370_ _131_ _360_ _369_ VDD VSS sg13g2_a21oi_1
X_775_ _371_ net19 net15 _130_ VDD VSS sg13g2_nor3_1
X_776_ _372_ _353_ _364_ _371_ VDD VSS sg13g2_nor3_1
X_777_ _373_ _370_ _372_ VDD VSS sg13g2_nor2_1
X_778_ _374_ _356_ _362_ _367_ _368_ _373_ VDD VSS sg13g2_a221oi_1
X_779_ _375_ uut_full_system_top.uut_adc_logic.counter\[1\]
+ _352_ VDD VSS sg13g2_nand2b_1
X_780_ _376_ net15 _363_ _375_ VDD VSS sg13g2_nand3_1
X_781_ _377_ net9 _111_ _112_ _132_ VDD VSS sg13g2_nand4_1
X_782_ _378_ _364_ _376_ _377_ VDD VSS sg13g2_nand3_1
X_783_ _379_ uut_full_system_top.uut_adc_logic.state\[3\]
+ _378_ VDD VSS sg13g2_nand2_1
X_784_ _074_ _374_ _379_ _351_ VDD VSS sg13g2_o21ai_1
X_785_ _380_ _232_ _356_ _365_ _131_ VDD VSS sg13g2_a22oi_1
X_786_ _381_ _373_ uut_full_system_top.uut_adc_logic.state\[3\]
+ VDD VSS sg13g2_nor2b_1
X_787_ _382_ _358_ _380_ _381_ VDD VSS sg13g2_o21ai_1
X_788_ _383_ uut_full_system_top.uut_adc_logic.state\[3\]
+ net5 _382_ VDD VSS sg13g2_o21ai_1
X_789_ _075_ _383_ VDD VSS sg13g2_inv_1
X_790_ _384_ _359_ _380_ _381_ VDD VSS sg13g2_o21ai_1
X_791_ _076_ uut_full_system_top.uut_adc_logic.state\[3\]
+ _119_ _384_ VDD VSS sg13g2_o21ai_1
X_792_ _385_ net8 uut_full_system_top.uut_adc_logic.state\[3\]
+ VDD VSS sg13g2_nand2_1
X_793_ _077_ uut_full_system_top.uut_adc_logic.state\[3\]
+ _120_ _385_ VDD VSS sg13g2_o21ai_1
X_794_ _078_ _114_ sc_select_sen_PIN uut_full_system_top.uut_cal_fsm.state\[3\]
+ VDD VSS sg13g2_a21oi_1
X_795_ _079_ _113_ _045_ uut_full_system_top.uut_cal_fsm.state\[3\]
+ VDD VSS sg13g2_a21oi_1
X_796_ _386_ sc_cal_ref_select\[0\] _163_ VDD VSS sg13g2_nor2_1
X_797_ _080_ _040_ _163_ VDD VSS sg13g2_xnor2_1
X_798_ _081_ sc_cal_ref_select\[1\] _386_ VDD VSS sg13g2_xnor2_1
X_799_ _387_ _042_ _041_ _386_ VDD VSS sg13g2_nand3_1
X_800_ _388_ _041_ _386_ _042_ VDD VSS sg13g2_a21o_1
X_801_ _082_ _387_ _388_ VDD VSS sg13g2_and2_1
X_802_ _083_ _043_ _387_ VDD VSS sg13g2_xnor2_1
X_803_ _389_ net56 uut_full_system_top.uart_busy _148_ VDD
+ VSS sg13g2_and3_1
X_804_ _390_ uut_full_system_top.uut_fsm.adc_done_sync _149_
+ VDD VSS sg13g2_nor2_1
X_805_ _391_ uut_full_system_top.uut_timer.trig_d2 uut_full_system_top.uut_timer.trig_d1
+ VDD VSS sg13g2_nand2b_1
X_806_ _392_ _116_ uut_full_system_top.uut_timer.done_d2 _391_
+ VDD VSS sg13g2_o21ai_1
X_807_ _393_ net55 net56 state_out\[1\] _392_ VDD VSS sg13g2_nor4_1
X_808_ _394_ net56 uut_full_system_top.uut_fsm.uart_done_sync
+ _151_ VDD VSS sg13g2_nor3_1
X_809_ _395_ _389_ _390_ _393_ _394_ VDD VSS sg13g2_nor4_1
X_810_ _396_ state_out\[2\] state_out\[1\] net56 VDD VSS sg13g2_a21oi_1
X_811_ _084_ _395_ _396_ _389_ VDD VSS sg13g2_a21o_1
X_812_ _397_ state_out\[0\] _148_ _147_ VDD VSS sg13g2_a21oi_1
X_813_ _398_ state_out\[1\] _395_ VDD VSS sg13g2_nor2_1
X_814_ _085_ _395_ _397_ _398_ VDD VSS sg13g2_a21oi_1
X_815_ _399_ uut_full_system_top.adc_start _148_ VDD VSS sg13g2_nor2_1
X_816_ _086_ _395_ _399_ _393_ VDD VSS sg13g2_a21oi_1